@<TRIPOS>MOLECULE

24 28 0 0 0

SMALL
NO_CHARGES

@<TRIPOS>ATOM
     1 C3        2.9302    3.1234    0.2821 C    1 UNL1      0.000
     2 C2        1.7106    3.7655   -0.1708 C    1 UNL1      0.000
     3 C1        0.7119    2.7301   -0.1875 C    1 UNL1      0.000
     4 C4        2.6729    1.6934    0.2355 C    1 UNL1      0.000
     5 N1        1.3255    1.5114    0.1308 N    1 UNL1      0.000
     6 C20       -0.7119    2.7301   -0.1876 C    1 UNL1      0.000
     7 N4       -1.3255    1.5114    0.1307 N    1 UNL1      0.000
     8 C17       -2.6729    1.6934    0.2356 C    1 UNL1      0.000
     9 C19       -1.7106    3.7655   -0.1708 C    1 UNL1      0.000
    10 C18       -2.9302    3.1234    0.2823 C    1 UNL1      0.000
    11 C16       -3.6791    0.6989   -0.2417 C    1 UNL1      0.000
    12 C15       -3.6792   -0.6989   -0.2419 C    1 UNL1      0.000
    13 C14       -2.6730   -1.6934    0.2355 C    1 UNL1      0.000
    14 N3       -1.3256   -1.5113    0.1307 N    1 UNL1      0.000
    15 C11       -0.7119   -2.7300   -0.1875 C    1 UNL1      0.000
    16 C10        0.7119   -2.7300   -0.1876 C    1 UNL1      0.000
    17 N2        1.3256   -1.5113    0.1306 N    1 UNL1      0.000
    18 C7        2.6730   -1.6934    0.2356 C    1 UNL1      0.000
    19 C8        2.9302   -3.1234    0.2822 C    1 UNL1      0.000
    20 C9        1.7105   -3.7654   -0.1709 C    1 UNL1      0.000
    21 C13       -2.9302   -3.1234    0.2820 C    1 UNL1      0.000
    22 C12       -1.7105   -3.7654   -0.1708 C    1 UNL1      0.000
    23 C6        3.6792   -0.6988   -0.2417 C    1 UNL1      0.000
    24 C5        3.6791    0.6989   -0.2419 C    1 UNL1      0.000
@<TRIPOS>BOND
     1     1     2     1
     2     1     4     1
     3     2     3     1
     4     3     5     1
     5     3     6     1
     6     4     5     1
     7     4    24     1
     8     6     7     1
     9     6     9     1
    10     7     8     1
    11     8    10     1
    12     8    11     1
    13     9    10     1
    14    11    12     1
    15    12    13     1
    16    13    14     1
    17    13    21     1
    18    14    15     1
    19    15    16     1
    20    15    22     1
    21    16    17     1
    22    16    20     1
    23    17    18     1
    24    18    19     1
    25    18    23     1
    26    19    20     1
    27    21    22     1
    28    23    24     1
