@<TRIPOS>MOLECULE

23 27 0 0 0

SMALL
NO_CHARGES

@<TRIPOS>ATOM
     1 C4       -0.0325    2.6109   -1.4768 C    1 UNL1      0.000
     2 C3       -0.3697    3.0013   -2.8664 C    1 UNL1      0.000
     3 C2       -0.3379    1.8343   -3.6355 C    1 UNL1      0.000
     4 C1        0.0323    0.7232   -2.7301 C    1 UNL1      0.000
     5 C19        0.0323   -0.7233   -2.7300 C    1 UNL1      0.000
     6 C18       -0.3380   -1.8343   -3.6356 C    1 UNL1      0.000
     7 C17       -0.3693   -3.0013   -2.8665 C    1 UNL1      0.000
     8 C16       -0.0333   -2.6109   -1.4768 C    1 UNL1      0.000
     9 N4        0.2511   -1.2507   -1.4702 N    1 UNL1      0.000
    10 N1        0.2514    1.2507   -1.4703 N    1 UNL1      0.000
    11 C15       -0.1173   -3.3393   -0.2599 C    1 UNL1      0.000
    12 C14       -0.0607   -2.7936    1.0409 C    1 UNL1      0.000
    13 N3        0.1277   -1.4507    1.3531 N    1 UNL1      0.000
    14 C11       -0.0574   -1.2639    2.7055 C    1 UNL1      0.000
    15 C12       -0.3134   -2.5809    3.3183 C    1 UNL1      0.000
    16 C13       -0.3170   -3.5100    2.3025 C    1 UNL1      0.000
    17 C10       -0.1006   -0.0000    3.3359 C    1 UNL1      0.000
    18 C9       -0.0576    1.2639    2.7055 C    1 UNL1      0.000
    19 N2        0.1281    1.4507    1.3531 N    1 UNL1      0.000
    20 C8       -0.3131    2.5809    3.3182 C    1 UNL1      0.000
    21 C7       -0.3176    3.5101    2.3024 C    1 UNL1      0.000
    22 C6       -0.0603    2.7937    1.0410 C    1 UNL1      0.000
    23 C5       -0.1157    3.3393   -0.2599 C    1 UNL1      0.000
@<TRIPOS>BOND
     1     1     2     1
     2     1    10     1
     3     1    23     1
     4     2     3     1
     5     3     4     1
     6     4     5     1
     7     4    10     1
     8     5     6     1
     9     5     9     1
    10     6     7     1
    11     7     8     1
    12     8     9     1
    13     8    11     1
    14    11    12     1
    15    12    13     1
    16    12    16     1
    17    13    14     1
    18    14    15     1
    19    14    17     1
    20    15    16     1
    21    17    18     1
    22    18    19     1
    23    18    20     1
    24    19    22     1
    25    20    21     1
    26    21    22     1
    27    22    23     1
