@<TRIPOS>MOLECULE

23 27 0 0 0

SMALL
NO_CHARGES

@<TRIPOS>ATOM
     1 C4        0.0124    2.6109   -1.4768 C    1 UNL1      0.000
     2 C3        0.3317    3.0015   -2.8663 C    1 UNL1      0.000
     3 C2       -0.0128    1.8345   -3.6355 C    1 UNL1      0.000
     4 C1       -0.4047    0.7234   -2.7301 C    1 UNL1      0.000
     5 C19       -0.4047   -0.7232   -2.7302 C    1 UNL1      0.000
     6 C18       -0.0129   -1.8340   -3.6357 C    1 UNL1      0.000
     7 C17        0.3322   -3.0011   -2.8666 C    1 UNL1      0.000
     8 C16        0.0117   -2.6109   -1.4771 C    1 UNL1      0.000
     9 N4       -0.2553   -1.2507   -1.4704 N    1 UNL1      0.000
    10 N1       -0.2551    1.2506   -1.4702 N    1 UNL1      0.000
    11 C15       -0.1775   -3.3391   -0.2599 C    1 UNL1      0.000
    12 C14       -0.4034   -2.7935    1.0409 C    1 UNL1      0.000
    13 N3       -0.5100   -1.4506    1.3533 N    1 UNL1      0.000
    14 C11       -0.2052   -1.2637    2.7056 C    1 UNL1      0.000
    15 C12        0.2672   -2.5808    3.3182 C    1 UNL1      0.000
    16 C13        0.0735   -3.5099    2.3025 C    1 UNL1      0.000
    17 C10       -0.0921    0.0002    3.3360 C    1 UNL1      0.000
    18 C9       -0.2053    1.2642    2.7057 C    1 UNL1      0.000
    19 N2       -0.5094    1.4506    1.3533 N    1 UNL1      0.000
    20 C8        0.2676    2.5813    3.3181 C    1 UNL1      0.000
    21 C7        0.0730    3.5101    2.3022 C    1 UNL1      0.000
    22 C6       -0.4030    2.7935    1.0409 C    1 UNL1      0.000
    23 C5       -0.1760    3.3392   -0.2599 C    1 UNL1      0.000
@<TRIPOS>BOND
     1     1     2     1
     2     1    10     1
     3     1    23     1
     4     2     3     1
     5     3     4     1
     6     4     5     1
     7     4    10     1
     8     5     6     1
     9     5     9     1
    10     6     7     1
    11     7     8     1
    12     8     9     1
    13     8    11     1
    14    11    12     1
    15    12    13     1
    16    12    16     1
    17    13    14     1
    18    14    15     1
    19    14    17     1
    20    15    16     1
    21    17    18     1
    22    18    19     1
    23    18    20     1
    24    19    22     1
    25    20    21     1
    26    21    22     1
    27    22    23     1
