@<TRIPOS>MOLECULE

23 27 0 0 0

SMALL
NO_CHARGES

@<TRIPOS>ATOM
     1 C4       -0.2259    2.6109   -1.4768 C    1 UNL1      0.000
     2 C3       -0.2112    3.0015   -2.8663 C    1 UNL1      0.000
     3 C2        0.3661    1.8345   -3.6355 C    1 UNL1      0.000
     4 C1        0.2786    0.7234   -2.7301 C    1 UNL1      0.000
     5 C19       -0.2779   -0.7233   -2.7301 C    1 UNL1      0.000
     6 C18       -0.3663   -1.8343   -3.6354 C    1 UNL1      0.000
     7 C17        0.2117   -3.0013   -2.8663 C    1 UNL1      0.000
     8 C16        0.2267   -2.6109   -1.4768 C    1 UNL1      0.000
     9 N4       -0.2073   -1.2507   -1.4702 N    1 UNL1      0.000
    10 N1        0.2073    1.2509   -1.4702 N    1 UNL1      0.000
    11 C15        0.2123   -3.3394   -0.2598 C    1 UNL1      0.000
    12 C14       -0.2180   -2.7938    1.0410 C    1 UNL1      0.000
    13 N3       -0.0123   -1.4508    1.3532 N    1 UNL1      0.000
    14 C11        0.2614   -1.2640    2.7055 C    1 UNL1      0.000
    15 C12        0.2627   -2.5811    3.3183 C    1 UNL1      0.000
    16 C13       -0.3376   -3.5102    2.3025 C    1 UNL1      0.000
    17 C10        0.0001    0.0001    3.3358 C    1 UNL1      0.000
    18 C9       -0.2615    1.2640    2.7055 C    1 UNL1      0.000
    19 N2        0.0125    1.4508    1.3531 N    1 UNL1      0.000
    20 C8       -0.2624    2.5812    3.3182 C    1 UNL1      0.000
    21 C7        0.3374    3.5103    2.3024 C    1 UNL1      0.000
    22 C6        0.2169    2.7937    1.0408 C    1 UNL1      0.000
    23 C5       -0.2125    3.3395   -0.2598 C    1 UNL1      0.000
@<TRIPOS>BOND
     1     1     2     1
     2     1    10     1
     3     1    23     1
     4     2     3     1
     5     3     4     1
     6     4     5     1
     7     4    10     1
     8     5     6     1
     9     5     9     1
    10     6     7     1
    11     7     8     1
    12     8     9     1
    13     8    11     1
    14    11    12     1
    15    12    13     1
    16    12    16     1
    17    13    14     1
    18    14    15     1
    19    14    17     1
    20    15    16     1
    21    17    18     1
    22    18    19     1
    23    18    20     1
    24    19    22     1
    25    20    21     1
    26    21    22     1
    27    22    23     1
