@<TRIPOS>MOLECULE

23 27 0 0 0

SMALL
NO_CHARGES

@<TRIPOS>ATOM
     1 C4       -0.1305    2.6107   -1.4767 C    1 UNL1      0.000
     2 C3       -0.3477    3.0011   -2.8665 C    1 UNL1      0.000
     3 C2        0.3009    1.8342   -3.6355 C    1 UNL1      0.000
     4 C1        0.1921    0.7232   -2.7300 C    1 UNL1      0.000
     5 C19       -0.1914   -0.7232   -2.7300 C    1 UNL1      0.000
     6 C18       -0.3011   -1.8341   -3.6353 C    1 UNL1      0.000
     7 C17        0.3482   -3.0010   -2.8661 C    1 UNL1      0.000
     8 C16        0.1313   -2.6106   -1.4767 C    1 UNL1      0.000
     9 N4        0.0167   -1.2506   -1.4701 N    1 UNL1      0.000
    10 N1       -0.0166    1.2506   -1.4702 N    1 UNL1      0.000
    11 C15       -0.4090   -3.3391   -0.2598 C    1 UNL1      0.000
    12 C14        0.0463   -2.7936    1.0409 C    1 UNL1      0.000
    13 N3        0.1202   -1.4508    1.3532 N    1 UNL1      0.000
    14 C11       -0.1234   -1.2641    2.7056 C    1 UNL1      0.000
    15 C12       -0.1484   -2.5814    3.3181 C    1 UNL1      0.000
    16 C13        0.2402   -3.5104    2.3023 C    1 UNL1      0.000
    17 C10        0.0002   -0.0001    3.3359 C    1 UNL1      0.000
    18 C9        0.1231    1.2642    2.7057 C    1 UNL1      0.000
    19 N2       -0.1200    1.4510    1.3533 N    1 UNL1      0.000
    20 C8        0.1486    2.5813    3.3183 C    1 UNL1      0.000
    21 C7       -0.2402    3.5103    2.3024 C    1 UNL1      0.000
    22 C6       -0.0473    2.7938    1.0411 C    1 UNL1      0.000
    23 C5        0.4087    3.3392   -0.2600 C    1 UNL1      0.000
@<TRIPOS>BOND
     1     1     2     1
     2     1    10     1
     3     1    23     1
     4     2     3     1
     5     3     4     1
     6     4     5     1
     7     4    10     1
     8     5     6     1
     9     5     9     1
    10     6     7     1
    11     7     8     1
    12     8     9     1
    13     8    11     1
    14    11    12     1
    15    12    13     1
    16    12    16     1
    17    13    14     1
    18    14    15     1
    19    14    17     1
    20    15    16     1
    21    17    18     1
    22    18    19     1
    23    18    20     1
    24    19    22     1
    25    20    21     1
    26    21    22     1
    27    22    23     1
