@<TRIPOS>MOLECULE

23 27 0 0 0

SMALL
NO_CHARGES

@<TRIPOS>ATOM
     1 C4       -0.1866    2.6114   -1.4770 C    1 UNL1      0.000
     2 C3       -0.2288    3.0004   -2.8674 C    1 UNL1      0.000
     3 C2        0.1453    1.8327   -3.6354 C    1 UNL1      0.000
     4 C1        0.1086    0.7230   -2.7289 C    1 UNL1      0.000
     5 C19        0.1086   -0.7230   -2.7290 C    1 UNL1      0.000
     6 C18        0.1452   -1.8329   -3.6355 C    1 UNL1      0.000
     7 C17       -0.2283   -3.0006   -2.8675 C    1 UNL1      0.000
     8 C16       -0.1873   -2.6114   -1.4771 C    1 UNL1      0.000
     9 N4       -0.1820   -1.2512   -1.4698 N    1 UNL1      0.000
    10 N1       -0.1818    1.2513   -1.4696 N    1 UNL1      0.000
    11 C15        0.3411   -3.3393   -0.2598 C    1 UNL1      0.000
    12 C14        0.0453   -2.7928    1.0411 C    1 UNL1      0.000
    13 N3       -0.2716   -1.4501    1.3533 N    1 UNL1      0.000
    14 C11       -0.0735   -1.2634    2.7058 C    1 UNL1      0.000
    15 C12       -0.1904   -2.5800    3.3186 C    1 UNL1      0.000
    16 C13        0.0170   -3.5091    2.3027 C    1 UNL1      0.000
    17 C10        0.4860    0.0000    3.3364 C    1 UNL1      0.000
    18 C9       -0.0737    1.2634    2.7056 C    1 UNL1      0.000
    19 N2       -0.2713    1.4503    1.3530 N    1 UNL1      0.000
    20 C8       -0.1900    2.5798    3.3186 C    1 UNL1      0.000
    21 C7        0.0166    3.5092    2.3030 C    1 UNL1      0.000
    22 C6        0.0457    2.7932    1.0411 C    1 UNL1      0.000
    23 C5        0.3426    3.3395   -0.2597 C    1 UNL1      0.000
@<TRIPOS>BOND
     1     1     2     1
     2     1    10     1
     3     1    23     1
     4     2     3     1
     5     3     4     1
     6     4     5     1
     7     4    10     1
     8     5     6     1
     9     5     9     1
    10     6     7     1
    11     7     8     1
    12     8     9     1
    13     8    11     1
    14    11    12     1
    15    12    13     1
    16    12    16     1
    17    13    14     1
    18    14    15     1
    19    14    17     1
    20    15    16     1
    21    17    18     1
    22    18    19     1
    23    18    20     1
    24    19    22     1
    25    20    21     1
    26    21    22     1
    27    22    23     1
