@<TRIPOS>MOLECULE

23 27 0 0 0

SMALL
NO_CHARGES

@<TRIPOS>ATOM
     1 C4        0.1846    2.6109   -1.4769 C    1 UNL1      0.000
     2 C3        0.0659    3.0012   -2.8665 C    1 UNL1      0.000
     3 C2       -0.2588    1.8343   -3.6355 C    1 UNL1      0.000
     4 C1       -0.3018    0.7233   -2.7300 C    1 UNL1      0.000
     5 C19       -0.3018   -0.7233   -2.7300 C    1 UNL1      0.000
     6 C18       -0.2590   -1.8343   -3.6355 C    1 UNL1      0.000
     7 C17        0.0663   -3.0012   -2.8665 C    1 UNL1      0.000
     8 C16        0.1838   -2.6109   -1.4768 C    1 UNL1      0.000
     9 N4       -0.0727   -1.2507   -1.4702 N    1 UNL1      0.000
    10 N1       -0.0724    1.2507   -1.4702 N    1 UNL1      0.000
    11 C15        0.4446   -3.3394   -0.2599 C    1 UNL1      0.000
    12 C14        0.3059   -2.7936    1.0409 C    1 UNL1      0.000
    13 N3        0.0369   -1.4508    1.3531 N    1 UNL1      0.000
    14 C11       -0.2634   -1.2640    2.7056 C    1 UNL1      0.000
    15 C12       -0.1770   -2.5809    3.3182 C    1 UNL1      0.000
    16 C13        0.2262   -3.5101    2.3024 C    1 UNL1      0.000
    17 C10       -0.4924    0.0000    3.3359 C    1 UNL1      0.000
    18 C9       -0.2637    1.2639    2.7057 C    1 UNL1      0.000
    19 N2        0.0372    1.4507    1.3532 N    1 UNL1      0.000
    20 C8       -0.1766    2.5810    3.3183 C    1 UNL1      0.000
    21 C7        0.2256    3.5100    2.3024 C    1 UNL1      0.000
    22 C6        0.3062    2.7935    1.0409 C    1 UNL1      0.000
    23 C5        0.4461    3.3393   -0.2599 C    1 UNL1      0.000
@<TRIPOS>BOND
     1     1     2     1
     2     1    10     1
     3     1    23     1
     4     2     3     1
     5     3     4     1
     6     4     5     1
     7     4    10     1
     8     5     6     1
     9     5     9     1
    10     6     7     1
    11     7     8     1
    12     8     9     1
    13     8    11     1
    14    11    12     1
    15    12    13     1
    16    12    16     1
    17    13    14     1
    18    14    15     1
    19    14    17     1
    20    15    16     1
    21    17    18     1
    22    18    19     1
    23    18    20     1
    24    19    22     1
    25    20    21     1
    26    21    22     1
    27    22    23     1
