@<TRIPOS>MOLECULE

23 27 0 0 0

SMALL
NO_CHARGES

@<TRIPOS>ATOM
     1 C4       -0.3446    2.6108   -1.4769 C    1 UNL1      0.000
     2 C3       -0.0153    3.0013   -2.8664 C    1 UNL1      0.000
     3 C2        0.0806    1.8344   -3.6357 C    1 UNL1      0.000
     4 C1       -0.2568    0.7233   -2.7303 C    1 UNL1      0.000
     5 C19        0.2575   -0.7233   -2.7303 C    1 UNL1      0.000
     6 C18       -0.0809   -1.8344   -3.6357 C    1 UNL1      0.000
     7 C17        0.0157   -3.0013   -2.8664 C    1 UNL1      0.000
     8 C16        0.3454   -2.6107   -1.4768 C    1 UNL1      0.000
     9 N4        0.6652   -1.2506   -1.4704 N    1 UNL1      0.000
    10 N1       -0.6650    1.2506   -1.4704 N    1 UNL1      0.000
    11 C15       -0.1412   -3.3390   -0.2598 C    1 UNL1      0.000
    12 C14       -0.3934   -2.7934    1.0410 C    1 UNL1      0.000
    13 N3       -0.5147   -1.4506    1.3533 N    1 UNL1      0.000
    14 C11       -0.1181   -1.2638    2.7057 C    1 UNL1      0.000
    15 C12        0.2545   -2.5809    3.3183 C    1 UNL1      0.000
    16 C13       -0.0045   -3.5100    2.3025 C    1 UNL1      0.000
    17 C10        0.0002    0.0000    3.3362 C    1 UNL1      0.000
    18 C9        0.1180    1.2639    2.7057 C    1 UNL1      0.000
    19 N2        0.5150    1.4506    1.3533 N    1 UNL1      0.000
    20 C8       -0.2542    2.5809    3.3183 C    1 UNL1      0.000
    21 C7        0.0044    3.5100    2.3025 C    1 UNL1      0.000
    22 C6        0.3925    2.7934    1.0410 C    1 UNL1      0.000
    23 C5        0.1412    3.3392   -0.2598 C    1 UNL1      0.000
@<TRIPOS>BOND
     1     1     2     1
     2     1    10     1
     3     1    23     1
     4     2     3     1
     5     3     4     1
     6     4     5     1
     7     4    10     1
     8     5     6     1
     9     5     9     1
    10     6     7     1
    11     7     8     1
    12     8     9     1
    13     8    11     1
    14    11    12     1
    15    12    13     1
    16    12    16     1
    17    13    14     1
    18    14    15     1
    19    14    17     1
    20    15    16     1
    21    17    18     1
    22    18    19     1
    23    18    20     1
    24    19    22     1
    25    20    21     1
    26    21    22     1
    27    22    23     1
