@<TRIPOS>MOLECULE

23 27 0 0 0

SMALL
NO_CHARGES

@<TRIPOS>ATOM
     1 C4       -0.0447    2.6221   -1.4770 C    1 UNL1      0.000
     2 C3        0.0410    2.9962   -2.8713 C    1 UNL1      0.000
     3 C2        0.2215    1.8204   -3.6262 C    1 UNL1      0.000
     4 C1        0.1639    0.7221   -2.7078 C    1 UNL1      0.000
     5 C19       -0.1635   -0.7222   -2.7077 C    1 UNL1      0.000
     6 C18       -0.2224   -1.8206   -3.6261 C    1 UNL1      0.000
     7 C17       -0.0402   -2.9964   -2.8713 C    1 UNL1      0.000
     8 C16        0.0466   -2.6222   -1.4770 C    1 UNL1      0.000
     9 N4       -0.1844   -1.2608   -1.4536 N    1 UNL1      0.000
    10 N1        0.1853    1.2608   -1.4536 N    1 UNL1      0.000
    11 C15        0.3950   -3.3627   -0.2681 C    1 UNL1      0.000
    12 C14        0.0732   -2.8144    1.0315 C    1 UNL1      0.000
    13 N3       -0.4391   -1.4690    1.3377 N    1 UNL1      0.000
    14 C11       -0.4275   -1.2713    2.6869 C    1 UNL1      0.000
    15 C12       -0.2487   -2.5858    3.3074 C    1 UNL1      0.000
    16 C13        0.2178   -3.5222    2.2977 C    1 UNL1      0.000
    17 C10        0.0008    0.0001    3.3078 C    1 UNL1      0.000
    18 C9        0.4276    1.2713    2.6868 C    1 UNL1      0.000
    19 N2        0.4389    1.4689    1.3378 N    1 UNL1      0.000
    20 C8        0.2491    2.5857    3.3075 C    1 UNL1      0.000
    21 C7       -0.2187    3.5222    2.2979 C    1 UNL1      0.000
    22 C6       -0.0748    2.8145    1.0315 C    1 UNL1      0.000
    23 C5       -0.3944    3.3627   -0.2680 C    1 UNL1      0.000
@<TRIPOS>BOND
     1     1     2     1
     2     1    10     1
     3     1    23     1
     4     2     3     1
     5     3     4     1
     6     4     5     1
     7     4    10     1
     8     5     6     1
     9     5     9     1
    10     6     7     1
    11     7     8     1
    12     8     9     1
    13     8    11     1
    14    11    12     1
    15    12    13     1
    16    12    16     1
    17    13    14     1
    18    14    15     1
    19    14    17     1
    20    15    16     1
    21    17    18     1
    22    18    19     1
    23    18    20     1
    24    19    22     1
    25    20    21     1
    26    21    22     1
    27    22    23     1
