@<TRIPOS>MOLECULE

23 27 0 0 0

SMALL
NO_CHARGES

@<TRIPOS>ATOM
     1 C4        0.4419    2.6105   -1.4767 C    1 UNL1      0.000
     2 C3        0.1808    3.0014   -2.8662 C    1 UNL1      0.000
     3 C2       -0.3051    1.8348   -3.6357 C    1 UNL1      0.000
     4 C1       -0.1317    0.7233   -2.7307 C    1 UNL1      0.000
     5 C19       -0.1313   -0.7234   -2.7308 C    1 UNL1      0.000
     6 C18       -0.3047   -1.8347   -3.6359 C    1 UNL1      0.000
     7 C17        0.1814   -3.0014   -2.8663 C    1 UNL1      0.000
     8 C16        0.4411   -2.6106   -1.4769 C    1 UNL1      0.000
     9 N4        0.3018   -1.2504   -1.4707 N    1 UNL1      0.000
    10 N1        0.3016    1.2503   -1.4708 N    1 UNL1      0.000
    11 C15        0.2481   -3.3386   -0.2596 C    1 UNL1      0.000
    12 C14       -0.2030   -2.7929    1.0412 C    1 UNL1      0.000
    13 N3       -0.1920   -1.4501    1.3537 N    1 UNL1      0.000
    14 C11        0.1298   -1.2637    2.7062 C    1 UNL1      0.000
    15 C12        0.0046   -2.5808    3.3186 C    1 UNL1      0.000
    16 C13       -0.2963   -3.5096    2.3026 C    1 UNL1      0.000
    17 C10        0.4896   -0.0000    3.3368 C    1 UNL1      0.000
    18 C9        0.1285    1.2638    2.7061 C    1 UNL1      0.000
    19 N2       -0.1928    1.4502    1.3536 N    1 UNL1      0.000
    20 C8        0.0044    2.5808    3.3185 C    1 UNL1      0.000
    21 C7       -0.2963    3.5097    2.3025 C    1 UNL1      0.000
    22 C6       -0.2024    2.7930    1.0413 C    1 UNL1      0.000
    23 C5        0.2506    3.3385   -0.2597 C    1 UNL1      0.000
@<TRIPOS>BOND
     1     1     2     1
     2     1    10     1
     3     1    23     1
     4     2     3     1
     5     3     4     1
     6     4     5     1
     7     4    10     1
     8     5     6     1
     9     5     9     1
    10     6     7     1
    11     7     8     1
    12     8     9     1
    13     8    11     1
    14    11    12     1
    15    12    13     1
    16    12    16     1
    17    13    14     1
    18    14    15     1
    19    14    17     1
    20    15    16     1
    21    17    18     1
    22    18    19     1
    23    18    20     1
    24    19    22     1
    25    20    21     1
    26    21    22     1
    27    22    23     1
