@<TRIPOS>MOLECULE

24 28 0 0 0

SMALL
NO_CHARGES

@<TRIPOS>ATOM
     1 C2        0.3150    1.7596    3.7819 C    1 UNL1      0.000
     2 C3        0.0708    2.9561    3.0880 C    1 UNL1      0.000
     3 C4       -0.3813    2.6209    1.6799 C    1 UNL1      0.000
     4 C1       -0.0949    0.7162    2.7894 C    1 UNL1      0.000
     5 N1       -0.4813    1.2673    1.5587 N    1 UNL1      0.000
     6 C20       -0.0949   -0.7166    2.7896 C    1 UNL1      0.000
     7 N4       -0.4812   -1.2678    1.5590 N    1 UNL1      0.000
     8 C17       -0.3814   -2.6214    1.6804 C    1 UNL1      0.000
     9 C19        0.3150   -1.7600    3.7823 C    1 UNL1      0.000
    10 C18        0.0708   -2.9565    3.0886 C    1 UNL1      0.000
    11 C5       -0.3401    3.4225    0.5371 C    1 UNL1      0.000
    12 C6       -0.1302    2.9702   -0.7952 C    1 UNL1      0.000
    13 N2       -0.1745    1.6619   -1.2672 N    1 UNL1      0.000
    14 C9       -0.0484    1.7311   -2.6324 C    1 UNL1      0.000
    15 C7        0.1921    3.8752   -1.9150 C    1 UNL1      0.000
    16 C8        0.2441    3.1114   -3.0515 C    1 UNL1      0.000
    17 C10       -0.2689    0.6911   -3.5993 C    1 UNL1      0.000
    18 C11       -0.2690   -0.6908   -3.5990 C    1 UNL1      0.000
    19 C12       -0.0486   -1.7307   -2.6319 C    1 UNL1      0.000
    20 N3       -0.1744   -1.6617   -1.2666 N    1 UNL1      0.000
    21 C15       -0.1299   -2.9700   -0.7948 C    1 UNL1      0.000
    22 C13        0.2438   -3.1109   -3.0511 C    1 UNL1      0.000
    23 C14        0.1923   -3.8748   -1.9147 C    1 UNL1      0.000
    24 C16       -0.3401   -3.4227    0.5374 C    1 UNL1      0.000
@<TRIPOS>BOND
     1     1     2     1
     2     1     4     1
     3     2     3     1
     4     3     5     1
     5     3    11     1
     6     4     5     1
     7     4     6     1
     8     6     7     1
     9     6     9     1
    10     7     8     1
    11     8    10     1
    12     8    24     1
    13     9    10     1
    14    11    12     1
    15    12    13     1
    16    12    15     1
    17    13    14     1
    18    14    16     1
    19    14    17     1
    20    15    16     1
    21    17    18     1
    22    18    19     1
    23    19    20     1
    24    19    22     1
    25    20    21     1
    26    21    23     1
    27    21    24     1
    28    22    23     1
