@<TRIPOS>MOLECULE

24 28 0 0 0

SMALL
NO_CHARGES

@<TRIPOS>ATOM
     1 C2       -0.1456    1.7600    3.7822 C    1 UNL1      0.000
     2 C3       -0.2843    2.9564    3.0882 C    1 UNL1      0.000
     3 C4       -0.0397    2.6210    1.6801 C    1 UNL1      0.000
     4 C1        0.1868    0.7164    2.7897 C    1 UNL1      0.000
     5 N1        0.2850    1.2675    1.5589 N    1 UNL1      0.000
     6 C20        0.1870   -0.7164    2.7897 C    1 UNL1      0.000
     7 N4        0.2855   -1.2675    1.5589 N    1 UNL1      0.000
     8 C17       -0.0394   -2.6210    1.6801 C    1 UNL1      0.000
     9 C19       -0.1453   -1.7599    3.7822 C    1 UNL1      0.000
    10 C18       -0.2838   -2.9564    3.0882 C    1 UNL1      0.000
    11 C5       -0.2503    3.4225    0.5372 C    1 UNL1      0.000
    12 C6       -0.1987    2.9699   -0.7951 C    1 UNL1      0.000
    13 N2        0.0682    1.6616   -1.2671 N    1 UNL1      0.000
    14 C9        0.0332    1.7308   -2.6323 C    1 UNL1      0.000
    15 C7       -0.4260    3.8749   -1.9150 C    1 UNL1      0.000
    16 C8       -0.2584    3.1111   -3.0514 C    1 UNL1      0.000
    17 C10        0.2004    0.6909   -3.5994 C    1 UNL1      0.000
    18 C11        0.2002   -0.6909   -3.5994 C    1 UNL1      0.000
    19 C12        0.0329   -1.7308   -2.6323 C    1 UNL1      0.000
    20 N3        0.0681   -1.6616   -1.2671 N    1 UNL1      0.000
    21 C15       -0.1987   -2.9699   -0.7951 C    1 UNL1      0.000
    22 C13       -0.2589   -3.1111   -3.0514 C    1 UNL1      0.000
    23 C14       -0.4262   -3.8749   -1.9150 C    1 UNL1      0.000
    24 C16       -0.2503   -3.4225    0.5371 C    1 UNL1      0.000
@<TRIPOS>BOND
     1     1     2     1
     2     1     4     1
     3     2     3     1
     4     3     5     1
     5     3    11     1
     6     4     5     1
     7     4     6     1
     8     6     7     1
     9     6     9     1
    10     7     8     1
    11     8    10     1
    12     8    24     1
    13     9    10     1
    14    11    12     1
    15    12    13     1
    16    12    15     1
    17    13    14     1
    18    14    16     1
    19    14    17     1
    20    15    16     1
    21    17    18     1
    22    18    19     1
    23    19    20     1
    24    19    22     1
    25    20    21     1
    26    21    23     1
    27    21    24     1
    28    22    23     1
