@<TRIPOS>MOLECULE

24 28 0 0 0

SMALL
NO_CHARGES

@<TRIPOS>ATOM
     1 C2       -0.3748    1.7597    3.7822 C    1 UNL1      0.000
     2 C3        0.1659    2.9563    3.0885 C    1 UNL1      0.000
     3 C4        0.2059    2.6212    1.6803 C    1 UNL1      0.000
     4 C1       -0.2657    0.7165    2.7895 C    1 UNL1      0.000
     5 N1       -0.2137    1.2677    1.5589 N    1 UNL1      0.000
     6 C20        0.2652   -0.7163    2.7894 C    1 UNL1      0.000
     7 N4        0.2134   -1.2674    1.5588 N    1 UNL1      0.000
     8 C17       -0.2058   -2.6210    1.6799 C    1 UNL1      0.000
     9 C19        0.3749   -1.7598    3.7820 C    1 UNL1      0.000
    10 C18       -0.1657   -2.9563    3.0881 C    1 UNL1      0.000
    11 C5        0.3147    3.4224    0.5371 C    1 UNL1      0.000
    12 C6       -0.1935    2.9696   -0.7951 C    1 UNL1      0.000
    13 N2       -0.1707    1.6614   -1.2672 N    1 UNL1      0.000
    14 C9        0.1316    1.7308   -2.6324 C    1 UNL1      0.000
    15 C7       -0.2485    3.8747   -1.9149 C    1 UNL1      0.000
    16 C8        0.1026    3.1111   -3.0514 C    1 UNL1      0.000
    17 C10        0.2022    0.6909   -3.5996 C    1 UNL1      0.000
    18 C11       -0.2018   -0.6909   -3.5992 C    1 UNL1      0.000
    19 C12       -0.1317   -1.7307   -2.6320 C    1 UNL1      0.000
    20 N3        0.1707   -1.6616   -1.2668 N    1 UNL1      0.000
    21 C15        0.1939   -2.9699   -0.7950 C    1 UNL1      0.000
    22 C13       -0.1028   -3.1108   -3.0513 C    1 UNL1      0.000
    23 C14        0.2490   -3.8747   -1.9149 C    1 UNL1      0.000
    24 C16       -0.3150   -3.4225    0.5372 C    1 UNL1      0.000
@<TRIPOS>BOND
     1     1     2     1
     2     1     4     1
     3     2     3     1
     4     3     5     1
     5     3    11     1
     6     4     5     1
     7     4     6     1
     8     6     7     1
     9     6     9     1
    10     7     8     1
    11     8    10     1
    12     8    24     1
    13     9    10     1
    14    11    12     1
    15    12    13     1
    16    12    15     1
    17    13    14     1
    18    14    16     1
    19    14    17     1
    20    15    16     1
    21    17    18     1
    22    18    19     1
    23    19    20     1
    24    19    22     1
    25    20    21     1
    26    21    23     1
    27    21    24     1
    28    22    23     1
