@<TRIPOS>MOLECULE

24 28 0 0 0

SMALL
NO_CHARGES

@<TRIPOS>ATOM
     1 C2       -0.1372    1.7594    3.7820 C    1 UNL1      0.000
     2 C3        0.2383    2.9561    3.0884 C    1 UNL1      0.000
     3 C4        0.2076    2.6211    1.6802 C    1 UNL1      0.000
     4 C1       -0.1669    0.7163    2.7892 C    1 UNL1      0.000
     5 N1        0.1050    1.2676    1.5586 N    1 UNL1      0.000
     6 C20       -0.1667   -0.7163    2.7892 C    1 UNL1      0.000
     7 N4        0.1052   -1.2676    1.5586 N    1 UNL1      0.000
     8 C17        0.2074   -2.6211    1.6802 C    1 UNL1      0.000
     9 C19       -0.1370   -1.7594    3.7820 C    1 UNL1      0.000
    10 C18        0.2384   -2.9561    3.0884 C    1 UNL1      0.000
    11 C5       -0.1939    3.4225    0.5372 C    1 UNL1      0.000
    12 C6       -0.1972    2.9696   -0.7950 C    1 UNL1      0.000
    13 N2        0.1672    1.6614   -1.2670 N    1 UNL1      0.000
    14 C9        0.2793    1.7307   -2.6322 C    1 UNL1      0.000
    15 C7       -0.2182    3.8747   -1.9148 C    1 UNL1      0.000
    16 C8        0.3026    3.1110   -3.0513 C    1 UNL1      0.000
    17 C10       -0.2716    0.6909   -3.5995 C    1 UNL1      0.000
    18 C11       -0.2717   -0.6909   -3.5995 C    1 UNL1      0.000
    19 C12        0.2792   -1.7307   -2.6323 C    1 UNL1      0.000
    20 N3        0.1672   -1.6613   -1.2671 N    1 UNL1      0.000
    21 C15       -0.1970   -2.9695   -0.7949 C    1 UNL1      0.000
    22 C13        0.3025   -3.1110   -3.0513 C    1 UNL1      0.000
    23 C14       -0.2178   -3.8747   -1.9147 C    1 UNL1      0.000
    24 C16       -0.1943   -3.4224    0.5372 C    1 UNL1      0.000
@<TRIPOS>BOND
     1     1     2     1
     2     1     4     1
     3     2     3     1
     4     3     5     1
     5     3    11     1
     6     4     5     1
     7     4     6     1
     8     6     7     1
     9     6     9     1
    10     7     8     1
    11     8    10     1
    12     8    24     1
    13     9    10     1
    14    11    12     1
    15    12    13     1
    16    12    15     1
    17    13    14     1
    18    14    16     1
    19    14    17     1
    20    15    16     1
    21    17    18     1
    22    18    19     1
    23    19    20     1
    24    19    22     1
    25    20    21     1
    26    21    23     1
    27    21    24     1
    28    22    23     1
