@<TRIPOS>MOLECULE

24 28 0 0 0

SMALL
NO_CHARGES

@<TRIPOS>ATOM
     1 C2       -0.1614    1.7600    3.7823 C    1 UNL1      0.000
     2 C3       -0.1398    2.9565    3.0884 C    1 UNL1      0.000
     3 C4       -0.1699    2.6212    1.6802 C    1 UNL1      0.000
     4 C1       -0.2005    0.7165    2.7896 C    1 UNL1      0.000
     5 N1       -0.4017    1.2676    1.5590 N    1 UNL1      0.000
     6 C20        0.1999   -0.7163    2.7896 C    1 UNL1      0.000
     7 N4        0.4011   -1.2674    1.5588 N    1 UNL1      0.000
     8 C17        0.1699   -2.6209    1.6800 C    1 UNL1      0.000
     9 C19        0.1616   -1.7598    3.7820 C    1 UNL1      0.000
    10 C18        0.1402   -2.9563    3.0880 C    1 UNL1      0.000
    11 C5        0.3169    3.4226    0.5373 C    1 UNL1      0.000
    12 C6        0.4460    2.9698   -0.7950 C    1 UNL1      0.000
    13 N2        0.4384    1.6616   -1.2669 N    1 UNL1      0.000
    14 C9       -0.0706    1.7307   -2.6322 C    1 UNL1      0.000
    15 C7        0.0440    3.8748   -1.9149 C    1 UNL1      0.000
    16 C8       -0.3925    3.1109   -3.0513 C    1 UNL1      0.000
    17 C10       -0.1233    0.6908   -3.5993 C    1 UNL1      0.000
    18 C11        0.1236   -0.6910   -3.5994 C    1 UNL1      0.000
    19 C12        0.0707   -1.7309   -2.6324 C    1 UNL1      0.000
    20 N3       -0.4383   -1.6617   -1.2672 N    1 UNL1      0.000
    21 C15       -0.4457   -2.9700   -0.7952 C    1 UNL1      0.000
    22 C13        0.3926   -3.1113   -3.0515 C    1 UNL1      0.000
    23 C14       -0.0435   -3.8750   -1.9150 C    1 UNL1      0.000
    24 C16       -0.3174   -3.4224    0.5370 C    1 UNL1      0.000
@<TRIPOS>BOND
     1     1     2     1
     2     1     4     1
     3     2     3     1
     4     3     5     1
     5     3    11     1
     6     4     5     1
     7     4     6     1
     8     6     7     1
     9     6     9     1
    10     7     8     1
    11     8    10     1
    12     8    24     1
    13     9    10     1
    14    11    12     1
    15    12    13     1
    16    12    15     1
    17    13    14     1
    18    14    16     1
    19    14    17     1
    20    15    16     1
    21    17    18     1
    22    18    19     1
    23    19    20     1
    24    19    22     1
    25    20    21     1
    26    21    23     1
    27    21    24     1
    28    22    23     1
