@<TRIPOS>MOLECULE

24 28 0 0 0

SMALL
NO_CHARGES

@<TRIPOS>ATOM
     1 C2        0.2145    1.7600    3.7822 C    1 UNL1      0.000
     2 C3       -0.2395    2.9565    3.0883 C    1 UNL1      0.000
     3 C4       -0.2983    2.6210    1.6801 C    1 UNL1      0.000
     4 C1        0.2242    0.7164    2.7898 C    1 UNL1      0.000
     5 N1       -0.0895    1.2675    1.5590 N    1 UNL1      0.000
     6 C20        0.2241   -0.7164    2.7897 C    1 UNL1      0.000
     7 N4       -0.0895   -1.2674    1.5590 N    1 UNL1      0.000
     8 C17       -0.2983   -2.6210    1.6800 C    1 UNL1      0.000
     9 C19        0.2145   -1.7600    3.7822 C    1 UNL1      0.000
    10 C18       -0.2394   -2.9564    3.0882 C    1 UNL1      0.000
    11 C5       -0.1456    3.4225    0.5372 C    1 UNL1      0.000
    12 C6        0.2931    2.9698   -0.7951 C    1 UNL1      0.000
    13 N2        0.5628    1.6616   -1.2670 N    1 UNL1      0.000
    14 C9        0.2022    1.7307   -2.6323 C    1 UNL1      0.000
    15 C7       -0.0106    3.8748   -1.9150 C    1 UNL1      0.000
    16 C8       -0.1095    3.1110   -3.0514 C    1 UNL1      0.000
    17 C10       -0.2101    0.6909   -3.5994 C    1 UNL1      0.000
    18 C11       -0.2104   -0.6910   -3.5994 C    1 UNL1      0.000
    19 C12        0.2018   -1.7309   -2.6323 C    1 UNL1      0.000
    20 N3        0.5624   -1.6616   -1.2671 N    1 UNL1      0.000
    21 C15        0.2932   -2.9699   -0.7951 C    1 UNL1      0.000
    22 C13       -0.1096   -3.1111   -3.0514 C    1 UNL1      0.000
    23 C14       -0.0101   -3.8749   -1.9149 C    1 UNL1      0.000
    24 C16       -0.1457   -3.4225    0.5371 C    1 UNL1      0.000
@<TRIPOS>BOND
     1     1     2     1
     2     1     4     1
     3     2     3     1
     4     3     5     1
     5     3    11     1
     6     4     5     1
     7     4     6     1
     8     6     7     1
     9     6     9     1
    10     7     8     1
    11     8    10     1
    12     8    24     1
    13     9    10     1
    14    11    12     1
    15    12    13     1
    16    12    15     1
    17    13    14     1
    18    14    16     1
    19    14    17     1
    20    15    16     1
    21    17    18     1
    22    18    19     1
    23    19    20     1
    24    19    22     1
    25    20    21     1
    26    21    23     1
    27    21    24     1
    28    22    23     1
