@<TRIPOS>MOLECULE

24 28 0 0 0

SMALL
NO_CHARGES

@<TRIPOS>ATOM
     1 C2        0.0057    1.7598    3.7822 C    1 UNL1      0.000
     2 C3        0.2991    2.9563    3.0883 C    1 UNL1      0.000
     3 C4        0.0490    2.6211    1.6801 C    1 UNL1      0.000
     4 C1       -0.3930    0.7164    2.7896 C    1 UNL1      0.000
     5 N1       -0.3884    1.2675    1.5589 N    1 UNL1      0.000
     6 C20       -0.3930   -0.7164    2.7896 C    1 UNL1      0.000
     7 N4       -0.3882   -1.2675    1.5590 N    1 UNL1      0.000
     8 C17        0.0490   -2.6211    1.6802 C    1 UNL1      0.000
     9 C19        0.0056   -1.7598    3.7822 C    1 UNL1      0.000
    10 C18        0.2991   -2.9563    3.0883 C    1 UNL1      0.000
    11 C5        0.2045    3.4225    0.5372 C    1 UNL1      0.000
    12 C6        0.0850    2.9699   -0.7951 C    1 UNL1      0.000
    13 N2        0.2570    1.6616   -1.2671 N    1 UNL1      0.000
    14 C9        0.0591    1.7308   -2.6323 C    1 UNL1      0.000
    15 C7       -0.2887    3.8749   -1.9150 C    1 UNL1      0.000
    16 C8       -0.3322    3.1111   -3.0514 C    1 UNL1      0.000
    17 C10        0.2059    0.6909   -3.5994 C    1 UNL1      0.000
    18 C11        0.2059   -0.6909   -3.5994 C    1 UNL1      0.000
    19 C12        0.0591   -1.7308   -2.6323 C    1 UNL1      0.000
    20 N3        0.2570   -1.6616   -1.2671 N    1 UNL1      0.000
    21 C15        0.0852   -2.9698   -0.7951 C    1 UNL1      0.000
    22 C13       -0.3323   -3.1111   -3.0514 C    1 UNL1      0.000
    23 C14       -0.2885   -3.8749   -1.9150 C    1 UNL1      0.000
    24 C16        0.2044   -3.4225    0.5372 C    1 UNL1      0.000
@<TRIPOS>BOND
     1     1     2     1
     2     1     4     1
     3     2     3     1
     4     3     5     1
     5     3    11     1
     6     4     5     1
     7     4     6     1
     8     6     7     1
     9     6     9     1
    10     7     8     1
    11     8    10     1
    12     8    24     1
    13     9    10     1
    14    11    12     1
    15    12    13     1
    16    12    15     1
    17    13    14     1
    18    14    16     1
    19    14    17     1
    20    15    16     1
    21    17    18     1
    22    18    19     1
    23    19    20     1
    24    19    22     1
    25    20    21     1
    26    21    23     1
    27    21    24     1
    28    22    23     1
