####################################################################### 
# 
# This file contains crystal structure data downloaded from the 
# Cambridge Structural Database (CSD) hosted by the Cambridge 
# Crystallographic Data Centre (CCDC).
# 
# Full information about CCDC data access policies and citation 
# guidelines are available at http://www.ccdc.cam.ac.uk/access/V1 
# 
# Audit and citation data items may have been added by the CCDC. 
# Please retain this information to preserve the provenance of 
# this file and to allow appropriate attribution of the data. 
# 
#######################################################################

data_GP5-2001
_audit_block_doi                 10.5517/ccwwnlz
_database_code_depnum_ccdc_archive 'CCDC 830942'
loop_
_citation_id
_citation_doi
_citation_year
1 10.1142/S1088424611004038 2011
_audit_update_record             
;
2011-06-21 deposited with the CCDC.	2020-04-01 downloaded from the CCDC.
;
#TrackingRef '5915_web_deposit_cif_file_1_FrankR.Fronczek_
#1308690349.GP5-2001.cif'


_audit_creation_method           SHELXL-97
_chemical_name_systematic        
;
?
;
_chemical_name_common            ?
_chemical_melting_point          ?
_chemical_formula_moiety         'C55 H34 Co N8 O8 P, C H Cl3 '
_chemical_formula_sum            'C56 H35 Cl3 Co N8 O8 P'
_chemical_formula_weight         1144.17

loop_
_atom_type_symbol
_atom_type_description
_atom_type_scat_dispersion_real
_atom_type_scat_dispersion_imag
_atom_type_scat_source
C C 0.0033 0.0016 'International Tables Vol C Tables 4.2.6.8 and 6.1.1.4'
H H 0.0000 0.0000 'International Tables Vol C Tables 4.2.6.8 and 6.1.1.4'
Co Co 0.3494 0.9721 'International Tables Vol C Tables 4.2.6.8 and 6.1.1.4'
N N 0.0061 0.0033 'International Tables Vol C Tables 4.2.6.8 and 6.1.1.4'
O O 0.0106 0.0060 'International Tables Vol C Tables 4.2.6.8 and 6.1.1.4'
P P 0.1023 0.0942 'International Tables Vol C Tables 4.2.6.8 and 6.1.1.4'
Cl Cl 0.1484 0.1585 'International Tables Vol C Tables 4.2.6.8 and 6.1.1.4'

_symmetry_space_group_name_H-M   'P -1 '
_symmetry_space_group_name_Hall  '-P 1'
_symmetry_cell_setting           Triclinic

loop_
_symmetry_equiv_pos_as_xyz
'x, y, z'
'-x, -y, -z'

_cell_length_a                   15.9753(15)
_cell_length_b                   24.101(3)
_cell_length_c                   25.382(3)
_cell_angle_alpha                90.495(4)
_cell_angle_beta                 90.369(7)
_cell_angle_gamma                90.674(6)
_cell_volume                     9771.3(19)
_cell_formula_units_Z            8
_cell_measurement_temperature    90.0(5)
_cell_measurement_reflns_used    24385
_cell_measurement_theta_min      2.5
_cell_measurement_theta_max      25.6

_exptl_crystal_description       fragment
_exptl_crystal_colour            'dark green'
_exptl_crystal_size_max          0.20
_exptl_crystal_size_mid          0.17
_exptl_crystal_size_min          0.15
_exptl_crystal_density_meas      ?
_exptl_crystal_density_diffrn    1.556
_exptl_crystal_density_method    'not measured'
_exptl_crystal_F_000             4672
_exptl_absorpt_coefficient_mu    0.617
_exptl_absorpt_correction_type   multi-scan
_exptl_absorpt_correction_T_min  0.887
_exptl_absorpt_correction_T_max  0.913
_exptl_absorpt_process_details   'HKL Scalepack (Otwinowski & Minor 1997)'

_exptl_special_details           
;
?
;

_diffrn_ambient_temperature      90.0(5)
_diffrn_radiation_wavelength     0.71073
_diffrn_radiation_type           MoK\a
_diffrn_radiation_source         'fine-focus sealed tube'
_diffrn_radiation_monochromator  graphite
_diffrn_measurement_device       'Nonius KappaCCD'
_diffrn_measurement_method       ' \w and \f scans'
_diffrn_detector_area_resol_mean ?
_diffrn_standards_number         ?
_diffrn_standards_interval_count ?
_diffrn_standards_interval_time  ?
_diffrn_standards_decay_%        ?
_diffrn_reflns_number            121297
_diffrn_reflns_av_R_equivalents  0.0402
_diffrn_reflns_av_sigmaI/netI    0.0810
_diffrn_reflns_limit_h_min       -18
_diffrn_reflns_limit_h_max       17
_diffrn_reflns_limit_k_min       -27
_diffrn_reflns_limit_k_max       28
_diffrn_reflns_limit_l_min       -28
_diffrn_reflns_limit_l_max       29
_diffrn_reflns_theta_min         2.5
_diffrn_reflns_theta_max         25.6
_reflns_number_total             31240
_reflns_number_gt                19806
_reflns_threshold_expression     I>2\s(I)

_computing_data_collection       'COLLECT (Nonius, 2000)'
_computing_cell_refinement       'HKL Scalepack (Otwinowski & Minor 1997)'
_computing_data_reduction        
'HKL Denzo and Scalepack (Otwinowski & Minor 1997)'
_computing_structure_solution    'SIR97 (Altomare et al., 1999)'
_computing_structure_refinement  'SHELXL-97 (Sheldrick, 2008)'
_computing_molecular_graphics    'ORTEP-3 for Windows (Farrugia, 1997)'
_computing_publication_material  'SHELXL-97 (Sheldrick, 2008)'

_refine_special_details          
;
Refinement of F^2^ against ALL reflections. The weighted R-factor wR and
goodness of fit S are based on F^2^, conventional R-factors R are based
on F, with F set to zero for negative F^2^. The threshold expression of
F^2^ > 2sigma(F^2^) is used only for calculating R-factors(gt) etc. and is
not relevant to the choice of reflections for refinement. R-factors based
on F^2^ are statistically about twice as large as those based on F, and R-
factors based on ALL data will be even larger.
;

_refine_ls_structure_factor_coef Fsqd
_refine_ls_matrix_type           full
_refine_ls_weighting_scheme      calc
_refine_ls_weighting_details     
'calc w=1/[\s^2^(Fo^2^)+(0.1651P)^2^] where P=(Fo^2^+2Fc^2^)/3'
_atom_sites_solution_primary     direct
_atom_sites_solution_secondary   difmap
_atom_sites_solution_hydrogens   geom
_refine_ls_hydrogen_treatment    constr
_refine_ls_extinction_method     SHELXL
_refine_ls_extinction_coef       0.00082(18)
_refine_ls_extinction_expression Fc^*^=kFc[1+0.001xFc^2^\l^3^/sin(2\q)]^-1/4^
_refine_ls_number_reflns         31240
_refine_ls_number_parameters     2739
_refine_ls_number_restraints     0
_refine_ls_R_factor_all          0.127
_refine_ls_R_factor_gt           0.083
_refine_ls_wR_factor_ref         0.264
_refine_ls_wR_factor_gt          0.238
_refine_ls_goodness_of_fit_ref   1.089
_refine_ls_restrained_S_all      1.089
_refine_ls_shift/su_max          0.001
_refine_ls_shift/su_mean         0.000

loop_
_atom_site_label
_atom_site_type_symbol
_atom_site_fract_x
_atom_site_fract_y
_atom_site_fract_z
_atom_site_U_iso_or_equiv
_atom_site_adp_type
_atom_site_occupancy
_atom_site_symmetry_multiplicity
_atom_site_calc_flag
_atom_site_refinement_flags
_atom_site_disorder_assembly
_atom_site_disorder_group
Co1 Co 0.15022(5) 0.50028(3) 0.62664(3) 0.0239(2) Uani 1 1 d . . .
P1 P 0.29035(10) 0.49598(7) 0.62592(6) 0.0255(4) Uani 1 1 d . . .
O1 O 0.0689(3) 0.3758(2) 0.41616(19) 0.0484(13) Uani 1 1 d . . .
O2 O 0.1792(3) 0.42735(18) 0.41680(17) 0.0372(11) Uani 1 1 d . . .
O3 O 0.0569(3) 0.27720(19) 0.53732(18) 0.0443(12) Uani 1 1 d . . .
O4 O 0.1514(3) 0.2918(2) 0.4766(2) 0.0553(14) Uani 1 1 d . . .
O5 O 0.1065(3) 0.6897(2) 0.8024(2) 0.0562(14) Uani 1 1 d . . .
O6 O 0.0349(3) 0.6145(2) 0.81620(19) 0.0515(13) Uani 1 1 d . . .
O7 O 0.0661(3) 0.58670(19) 0.39868(16) 0.0382(11) Uani 1 1 d . . .
O8 O 0.0473(2) 0.49933(18) 0.41772(16) 0.0319(10) Uani 1 1 d . . .
N1 N 0.1282(3) 0.44313(19) 0.57772(18) 0.0247(11) Uani 1 1 d . . .
N2 N 0.1326(3) 0.4504(2) 0.68247(19) 0.0272(12) Uani 1 1 d . . .
N3 N 0.1362(3) 0.5639(2) 0.66998(19) 0.0275(12) Uani 1 1 d . . .
N4 N 0.1343(3) 0.5433(2) 0.56559(19) 0.0256(11) Uani 1 1 d . . .
N5 N 0.1212(3) 0.4041(2) 0.4388(2) 0.0317(12) Uani 1 1 d . . .
N6 N 0.1079(4) 0.3069(2) 0.5139(2) 0.0432(15) Uani 1 1 d . . .
N7 N 0.0851(4) 0.6428(2) 0.7899(2) 0.0409(14) Uani 1 1 d . . .
N8 N 0.0709(3) 0.5471(2) 0.42881(19) 0.0294(12) Uani 1 1 d . . .
C1 C 0.1210(3) 0.4575(2) 0.5259(2) 0.0256(14) Uani 1 1 d . . .
C2 C 0.1165(3) 0.4089(2) 0.4953(2) 0.0270(14) Uani 1 1 d . . .
C3 C 0.1163(3) 0.3644(2) 0.5306(2) 0.0265(14) Uani 1 1 d . . .
C4 C 0.1245(3) 0.3865(2) 0.5826(2) 0.0258(14) Uani 1 1 d . . .
C5 C 0.1308(4) 0.3606(3) 0.6322(2) 0.0293(14) Uani 1 1 d . . .
C6 C 0.1327(4) 0.3924(3) 0.6786(2) 0.0347(16) Uani 1 1 d . . .
C7 C 0.1384(4) 0.3701(3) 0.7317(2) 0.0336(15) Uani 1 1 d . . .
H7 H 0.1395 0.3319 0.7408 0.040 Uiso 1 1 calc R . .
C8 C 0.1419(4) 0.4132(3) 0.7655(2) 0.0352(16) Uani 1 1 d . . .
H8 H 0.1471 0.4109 0.8028 0.042 Uiso 1 1 calc R . .
C9 C 0.1366(4) 0.4634(3) 0.7358(2) 0.0297(14) Uani 1 1 d . . .
C10 C 0.1368(3) 0.5173(3) 0.7564(2) 0.0266(14) Uani 1 1 d . . .
C11 C 0.1290(4) 0.5644(2) 0.7243(2) 0.0284(14) Uani 1 1 d . . .
C12 C 0.1138(4) 0.6208(3) 0.7404(2) 0.0326(15) Uani 1 1 d . . .
C13 C 0.1150(4) 0.6543(3) 0.6971(2) 0.0346(15) Uani 1 1 d . . .
H13 H 0.1079 0.6934 0.6967 0.042 Uiso 1 1 calc R . .
C14 C 0.1291(4) 0.6186(2) 0.6521(2) 0.0264(14) Uani 1 1 d . . .
C15 C 0.1299(4) 0.6377(2) 0.6006(2) 0.0288(14) Uani 1 1 d . . .
C16 C 0.1289(3) 0.6001(2) 0.5574(2) 0.0263(14) Uani 1 1 d . . .
C17 C 0.1126(3) 0.6090(3) 0.5036(2) 0.0287(14) Uani 1 1 d . . .
H17 H 0.1083 0.6436 0.4863 0.034 Uiso 1 1 calc R . .
C18 C 0.1044(4) 0.5572(3) 0.4815(2) 0.0277(14) Uani 1 1 d . . .
C19 C 0.1197(3) 0.5160(2) 0.5195(2) 0.0246(13) Uani 1 1 d . . .
C20 C 0.1364(4) 0.2989(2) 0.6369(2) 0.0297(15) Uani 1 1 d . . .
C21 C 0.2054(4) 0.2716(3) 0.6172(2) 0.0340(15) Uani 1 1 d . . .
H21 H 0.2484 0.2925 0.6006 0.041 Uiso 1 1 calc R . .
C22 C 0.2133(4) 0.2151(3) 0.6209(3) 0.0392(17) Uani 1 1 d . . .
H22 H 0.2621 0.1975 0.6082 0.047 Uiso 1 1 calc R . .
C23 C 0.1494(5) 0.1837(3) 0.6434(3) 0.0448(18) Uani 1 1 d . . .
H23 H 0.1539 0.1445 0.6454 0.054 Uiso 1 1 calc R . .
C24 C 0.0789(5) 0.2099(3) 0.6631(3) 0.0431(18) Uani 1 1 d . . .
H24 H 0.0352 0.1888 0.6787 0.052 Uiso 1 1 calc R . .
C25 C 0.0728(4) 0.2687(3) 0.6596(3) 0.0409(17) Uani 1 1 d . . .
H25 H 0.0250 0.2870 0.6729 0.049 Uiso 1 1 calc R . .
C26 C 0.1514(4) 0.5252(3) 0.8140(2) 0.0294(14) Uani 1 1 d . . .
C27 C 0.2190(4) 0.5606(3) 0.8294(2) 0.0345(16) Uani 1 1 d . . .
H27 H 0.2532 0.5777 0.8036 0.041 Uiso 1 1 calc R . .
C28 C 0.2349(4) 0.5701(3) 0.8836(3) 0.0385(16) Uani 1 1 d . . .
H28 H 0.2796 0.5940 0.8945 0.046 Uiso 1 1 calc R . .
C29 C 0.1857(4) 0.5449(3) 0.9205(3) 0.0398(17) Uani 1 1 d . . .
H29 H 0.1975 0.5507 0.9568 0.048 Uiso 1 1 calc R . .
C30 C 0.1190(4) 0.5112(3) 0.9054(3) 0.0410(17) Uani 1 1 d . . .
H30 H 0.0848 0.4943 0.9314 0.049 Uiso 1 1 calc R . .
C31 C 0.1020(4) 0.5021(3) 0.8523(3) 0.0446(18) Uani 1 1 d . . .
H31 H 0.0554 0.4794 0.8422 0.054 Uiso 1 1 calc R . .
C32 C 0.1302(4) 0.6987(3) 0.5919(2) 0.0320(15) Uani 1 1 d . . .
C33 C 0.1920(4) 0.7320(3) 0.6144(3) 0.0386(16) Uani 1 1 d . . .
H33 H 0.2326 0.7159 0.6368 0.046 Uiso 1 1 calc R . .
C34 C 0.1959(5) 0.7879(3) 0.6050(3) 0.0496(19) Uani 1 1 d . . .
H34 H 0.2388 0.8100 0.6210 0.059 Uiso 1 1 calc R . .
C35 C 0.1380(5) 0.8118(3) 0.5727(3) 0.055(2) Uani 1 1 d . . .
H35 H 0.1419 0.8502 0.5650 0.066 Uiso 1 1 calc R . .
C36 C 0.0741(4) 0.7799(3) 0.5515(3) 0.0462(19) Uani 1 1 d . . .
H36 H 0.0324 0.7964 0.5301 0.055 Uiso 1 1 calc R . .
C37 C 0.0710(4) 0.7226(3) 0.5617(3) 0.0434(18) Uani 1 1 d . . .
H37 H 0.0268 0.7005 0.5471 0.052 Uiso 1 1 calc R . .
C38 C 0.3263(3) 0.4360(2) 0.5886(2) 0.0263(14) Uani 1 1 d . . .
C39 C 0.3085(3) 0.4338(3) 0.5346(2) 0.0284(14) Uani 1 1 d . . .
H39 H 0.2794 0.4636 0.5187 0.034 Uiso 1 1 calc R . .
C40 C 0.3321(4) 0.3899(3) 0.5043(3) 0.0330(15) Uani 1 1 d . . .
H40 H 0.3191 0.3893 0.4677 0.040 Uiso 1 1 calc R . .
C41 C 0.3741(4) 0.3467(3) 0.5258(3) 0.0361(16) Uani 1 1 d . . .
H41 H 0.3882 0.3156 0.5045 0.043 Uiso 1 1 calc R . .
C42 C 0.3964(4) 0.3479(3) 0.5787(3) 0.0395(17) Uani 1 1 d . . .
H42 H 0.4280 0.3186 0.5934 0.047 Uiso 1 1 calc R . .
C43 C 0.3715(4) 0.3933(3) 0.6104(3) 0.0328(15) Uani 1 1 d . . .
H43 H 0.3859 0.3944 0.6468 0.039 Uiso 1 1 calc R . .
C44 C 0.3369(4) 0.4929(3) 0.6912(2) 0.0319(15) Uani 1 1 d . . .
C45 C 0.3247(4) 0.4465(3) 0.7217(2) 0.0384(17) Uani 1 1 d . . .
H45 H 0.2904 0.4167 0.7089 0.046 Uiso 1 1 calc R . .
C46 C 0.3631(5) 0.4430(3) 0.7721(3) 0.051(2) Uani 1 1 d . . .
H46 H 0.3560 0.4105 0.7927 0.061 Uiso 1 1 calc R . .
C47 C 0.4101(4) 0.4862(4) 0.7906(3) 0.050(2) Uani 1 1 d . . .
H47 H 0.4356 0.4838 0.8244 0.060 Uiso 1 1 calc R . .
C48 C 0.4214(4) 0.5333(3) 0.7616(3) 0.0460(19) Uani 1 1 d . . .
H48 H 0.4534 0.5635 0.7757 0.055 Uiso 1 1 calc R . .
C49 C 0.3856(4) 0.5368(3) 0.7108(2) 0.0361(16) Uani 1 1 d . . .
H49 H 0.3948 0.5689 0.6901 0.043 Uiso 1 1 calc R . .
C50 C 0.3442(4) 0.5538(2) 0.5946(2) 0.0273(14) Uani 1 1 d . . .
C51 C 0.4095(4) 0.5441(3) 0.5576(2) 0.0334(15) Uani 1 1 d . . .
H51 H 0.4232 0.5073 0.5475 0.040 Uiso 1 1 calc R . .
C52 C 0.4527(4) 0.5887(3) 0.5365(3) 0.0416(17) Uani 1 1 d . . .
H52 H 0.4957 0.5821 0.5116 0.050 Uiso 1 1 calc R . .
C53 C 0.4348(4) 0.6419(3) 0.5507(3) 0.0430(18) Uani 1 1 d . . .
H53 H 0.4651 0.6719 0.5356 0.052 Uiso 1 1 calc R . .
C54 C 0.3732(4) 0.6522(3) 0.5868(3) 0.0446(18) Uani 1 1 d . . .
H54 H 0.3618 0.6893 0.5972 0.053 Uiso 1 1 calc R . .
C55 C 0.3267(4) 0.6077(3) 0.6086(3) 0.0368(16) Uani 1 1 d . . .
H55 H 0.2832 0.6150 0.6330 0.044 Uiso 1 1 calc R . .
Co1A Co 0.65004(5) 0.49847(3) 0.87369(3) 0.0249(2) Uani 1 1 d . . .
P1A P 0.79018(10) 0.50547(7) 0.87487(6) 0.0265(4) Uani 1 1 d . . .
O1A O 0.5710(3) 0.6237(2) 1.08337(19) 0.0528(14) Uani 1 1 d . . .
O2A O 0.6818(3) 0.57217(19) 1.08329(17) 0.0392(11) Uani 1 1 d . . .
O3A O 0.6561(4) 0.7071(2) 1.0228(2) 0.0576(14) Uani 1 1 d . . .
O4A O 0.5602(3) 0.7206(2) 0.96349(19) 0.0520(13) Uani 1 1 d . . .
O5A O 0.5354(3) 0.3808(2) 0.68338(18) 0.0468(12) Uani 1 1 d . . .
O6A O 0.6090(3) 0.3072(2) 0.69843(19) 0.0502(13) Uani 1 1 d . . .
O7A O 0.5638(3) 0.41290(19) 1.10140(16) 0.0388(11) Uani 1 1 d . . .
O8A O 0.5486(3) 0.50029(18) 1.08134(15) 0.0328(10) Uani 1 1 d . . .
N1A N 0.6286(3) 0.5562(2) 0.92254(19) 0.0255(11) Uani 1 1 d . . .
N2A N 0.6324(3) 0.5478(2) 0.81812(19) 0.0291(12) Uani 1 1 d . . .
N3A N 0.6349(3) 0.4346(2) 0.83025(19) 0.0286(12) Uani 1 1 d . . .
N4A N 0.6344(3) 0.4554(2) 0.93440(18) 0.0253(11) Uani 1 1 d . . .
N5A N 0.6247(3) 0.5958(2) 1.0610(2) 0.0340(13) Uani 1 1 d . . .
N6A N 0.6112(4) 0.6914(2) 0.9864(2) 0.0426(14) Uani 1 1 d . . .
N7A N 0.5843(3) 0.3540(2) 0.7103(2) 0.0385(14) Uani 1 1 d . . .
N8A N 0.5710(3) 0.4525(2) 1.0708(2) 0.0332(13) Uani 1 1 d . . .
C1A C 0.6239(3) 0.5412(2) 0.9743(2) 0.0258(14) Uani 1 1 d . . .
C2A C 0.6194(4) 0.5904(2) 1.0041(2) 0.0265(14) Uani 1 1 d . . .
C3A C 0.6189(4) 0.6342(2) 0.9693(2) 0.0276(14) Uani 1 1 d . . .
C4A C 0.6259(4) 0.6129(2) 0.9179(2) 0.0276(14) Uani 1 1 d . . .
C5A C 0.6304(4) 0.6377(3) 0.8679(2) 0.0299(14) Uani 1 1 d . . .
C6A C 0.6318(4) 0.6059(3) 0.8207(2) 0.0314(15) Uani 1 1 d . . .
C7A C 0.6363(4) 0.6282(3) 0.7688(2) 0.0388(17) Uani 1 1 d . . .
H7A H 0.6375 0.6665 0.7601 0.047 Uiso 1 1 calc R . .
C8A C 0.6384(4) 0.5854(3) 0.7343(3) 0.0369(16) Uani 1 1 d . . .
H8A H 0.6412 0.5876 0.6970 0.044 Uiso 1 1 calc R . .
C9A C 0.6357(4) 0.5350(3) 0.7656(2) 0.0332(15) Uani 1 1 d . . .
C10A C 0.6352(4) 0.4807(3) 0.7447(2) 0.0302(15) Uani 1 1 d . . .
C11A C 0.6284(4) 0.4332(2) 0.7758(2) 0.0271(14) Uani 1 1 d . . .
C12A C 0.6128(4) 0.3769(3) 0.7604(2) 0.0318(15) Uani 1 1 d . . .
C13A C 0.6154(4) 0.3428(3) 0.8034(2) 0.0306(15) Uani 1 1 d . . .
H13A H 0.6098 0.3035 0.8036 0.037 Uiso 1 1 calc R . .
C14A C 0.6282(4) 0.3788(3) 0.8475(2) 0.0283(14) Uani 1 1 d . . .
C15A C 0.6280(4) 0.3610(2) 0.8996(2) 0.0280(14) Uani 1 1 d . . .
C16A C 0.6277(4) 0.3986(2) 0.9431(2) 0.0283(14) Uani 1 1 d . . .
C17A C 0.6112(4) 0.3903(3) 0.9967(2) 0.0292(15) Uani 1 1 d . . .
H17A H 0.6059 0.3556 1.0139 0.035 Uiso 1 1 calc R . .
C18A C 0.6043(3) 0.4416(2) 1.0193(2) 0.0255(14) Uani 1 1 d . . .
C19A C 0.6200(4) 0.4833(2) 0.9807(2) 0.0262(14) Uani 1 1 d . . .
C20A C 0.6341(4) 0.6995(3) 0.8632(2) 0.0344(16) Uani 1 1 d . . .
C21A C 0.7062(4) 0.7287(3) 0.8814(2) 0.0374(16) Uani 1 1 d . . .
H21A H 0.7521 0.7087 0.8954 0.045 Uiso 1 1 calc R . .
C22A C 0.7108(4) 0.7859(3) 0.8791(3) 0.0436(17) Uani 1 1 d . . .
H22A H 0.7583 0.8055 0.8925 0.052 Uiso 1 1 calc R . .
C23A C 0.6439(5) 0.8143(3) 0.8565(3) 0.054(2) Uani 1 1 d . . .
H23A H 0.6463 0.8536 0.8545 0.064 Uiso 1 1 calc R . .
C24A C 0.5754(5) 0.7865(3) 0.8371(3) 0.052(2) Uani 1 1 d . . .
H24A H 0.5310 0.8066 0.8215 0.062 Uiso 1 1 calc R . .
C25A C 0.5698(4) 0.7289(3) 0.8401(3) 0.0398(17) Uani 1 1 d . . .
H25A H 0.5220 0.7098 0.8264 0.048 Uiso 1 1 calc R . .
C26A C 0.6480(4) 0.4718(3) 0.6872(2) 0.0302(15) Uani 1 1 d . . .
C27A C 0.5977(4) 0.4950(3) 0.6481(3) 0.0379(16) Uani 1 1 d . . .
H27A H 0.5516 0.5173 0.6580 0.046 Uiso 1 1 calc R . .
C28A C 0.6137(4) 0.4862(3) 0.5951(3) 0.0419(17) Uani 1 1 d . . .
H28A H 0.5785 0.5019 0.5690 0.050 Uiso 1 1 calc R . .
C29A C 0.6817(4) 0.4541(3) 0.5802(2) 0.0371(16) Uani 1 1 d . . .
H29A H 0.6934 0.4484 0.5440 0.045 Uiso 1 1 calc R . .
C30A C 0.7315(4) 0.4308(3) 0.6179(2) 0.0347(16) Uani 1 1 d . . .
H30A H 0.7770 0.4082 0.6076 0.042 Uiso 1 1 calc R . .
C31A C 0.7161(4) 0.4402(2) 0.6708(2) 0.0315(15) Uani 1 1 d . . .
H31A H 0.7524 0.4249 0.6965 0.038 Uiso 1 1 calc R . .
C32A C 0.6282(4) 0.2998(3) 0.9090(2) 0.0341(16) Uani 1 1 d . . .
C33A C 0.6897(4) 0.2674(3) 0.8876(3) 0.0408(17) Uani 1 1 d . . .
H33A H 0.7297 0.2835 0.8646 0.049 Uiso 1 1 calc R . .
C34A C 0.6938(6) 0.2105(3) 0.8995(3) 0.059(2) Uani 1 1 d . . .
H34A H 0.7373 0.1883 0.8856 0.071 Uiso 1 1 calc R . .
C35A C 0.6332(5) 0.1874(3) 0.9317(3) 0.054(2) Uani 1 1 d . . .
H35A H 0.6364 0.1494 0.9411 0.065 Uiso 1 1 calc R . .
C36A C 0.5680(5) 0.2192(3) 0.9503(3) 0.055(2) Uani 1 1 d . . .
H36A H 0.5249 0.2025 0.9706 0.066 Uiso 1 1 calc R . .
C37A C 0.5653(4) 0.2746(3) 0.9395(3) 0.0427(17) Uani 1 1 d . . .
H37A H 0.5207 0.2963 0.9527 0.051 Uiso 1 1 calc R . .
C38A C 0.8262(4) 0.5661(3) 0.9120(2) 0.0306(15) Uani 1 1 d . . .
C39A C 0.8711(4) 0.6105(3) 0.8908(3) 0.0338(15) Uani 1 1 d . . .
H39A H 0.8859 0.6100 0.8546 0.041 Uiso 1 1 calc R . .
C40A C 0.8943(4) 0.6554(3) 0.9227(3) 0.0465(19) Uani 1 1 d . . .
H40A H 0.9242 0.6855 0.9075 0.056 Uiso 1 1 calc R . .
C41A C 0.8755(4) 0.6578(3) 0.9750(3) 0.0406(17) Uani 1 1 d . . .
H41A H 0.8902 0.6895 0.9957 0.049 Uiso 1 1 calc R . .
C42A C 0.8342(4) 0.6126(3) 0.9972(3) 0.0345(16) Uani 1 1 d . . .
H42A H 0.8230 0.6127 1.0340 0.041 Uiso 1 1 calc R . .
C43A C 0.8094(4) 0.5676(3) 0.9664(2) 0.0318(15) Uani 1 1 d . . .
H43A H 0.7806 0.5374 0.9822 0.038 Uiso 1 1 calc R . .
C44A C 0.8363(4) 0.5095(3) 0.8099(2) 0.0342(15) Uani 1 1 d . . .
C45A C 0.8225(4) 0.5551(3) 0.7779(3) 0.0418(17) Uani 1 1 d . . .
H45A H 0.7878 0.5842 0.7900 0.050 Uiso 1 1 calc R . .
C46A C 0.8588(5) 0.5587(4) 0.7284(3) 0.052(2) Uani 1 1 d . . .
H46A H 0.8488 0.5901 0.7069 0.062 Uiso 1 1 calc R . .
C47A C 0.9091(5) 0.5170(4) 0.7105(3) 0.056(2) Uani 1 1 d . . .
H47A H 0.9346 0.5201 0.6769 0.067 Uiso 1 1 calc R . .
C48A C 0.9234(4) 0.4706(4) 0.7405(3) 0.053(2) Uani 1 1 d . . .
H48A H 0.9570 0.4414 0.7273 0.063 Uiso 1 1 calc R . .
C49A C 0.8878(4) 0.4667(3) 0.7908(3) 0.0408(17) Uani 1 1 d . . .
H49A H 0.8984 0.4353 0.8121 0.049 Uiso 1 1 calc R . .
C50A C 0.8453(4) 0.4476(3) 0.9061(2) 0.0322(15) Uani 1 1 d . . .
C51A C 0.8272(4) 0.3938(3) 0.8921(3) 0.0401(17) Uani 1 1 d . . .
H51A H 0.7835 0.3867 0.8673 0.048 Uiso 1 1 calc R . .
C52A C 0.8696(4) 0.3500(3) 0.9125(3) 0.050(2) Uani 1 1 d . . .
H52A H 0.8564 0.3131 0.9017 0.060 Uiso 1 1 calc R . .
C53A C 0.9339(4) 0.3609(3) 0.9502(3) 0.0478(19) Uani 1 1 d . . .
H53A H 0.9631 0.3309 0.9656 0.057 Uiso 1 1 calc R . .
C54A C 0.9539(4) 0.4138(3) 0.9643(3) 0.0394(17) Uani 1 1 d . . .
H54A H 0.9984 0.4210 0.9885 0.047 Uiso 1 1 calc R . .
C55A C 0.9096(4) 0.4574(3) 0.9433(3) 0.0360(16) Uani 1 1 d . . .
H55A H 0.9228 0.4944 0.9540 0.043 Uiso 1 1 calc R . .
Co1B Co 0.36299(5) 0.00041(3) 0.38932(3) 0.0249(2) Uani 1 1 d . . .
P1B P 0.22431(10) 0.00870(7) 0.38299(6) 0.0265(4) Uani 1 1 d . . .
O1B O 0.3303(3) 0.08034(18) 0.59578(17) 0.0371(11) Uani 1 1 d . . .
O2B O 0.4449(3) 0.1304(2) 0.59862(18) 0.0534(14) Uani 1 1 d . . .
O3B O 0.4786(3) 0.22033(19) 0.47689(19) 0.0456(12) Uani 1 1 d . . .
O4B O 0.3779(3) 0.2131(2) 0.5348(2) 0.0566(14) Uani 1 1 d . . .
O5B O 0.2726(5) -0.1214(3) 0.2015(3) 0.103(2) Uani 1 1 d . . .
O6B O 0.3557(5) -0.1975(2) 0.2190(2) 0.096(2) Uani 1 1 d . . .
O7B O 0.4202(3) -0.08071(19) 0.62184(17) 0.0466(12) Uani 1 1 d . . .
O8B O 0.4555(3) 0.00378(18) 0.59944(17) 0.0391(11) Uani 1 1 d . . .
N1B N 0.3878(3) 0.0584(2) 0.43713(18) 0.0261(11) Uani 1 1 d . . .
N2B N 0.3871(3) 0.0483(2) 0.33325(18) 0.0284(12) Uani 1 1 d . . .
N3B N 0.3711(3) -0.0650(2) 0.3483(2) 0.0307(12) Uani 1 1 d . . .
N4B N 0.3684(3) -0.0408(2) 0.45110(18) 0.0261(11) Uani 1 1 d . . .
N5B N 0.3922(4) 0.1017(2) 0.5753(2) 0.0333(13) Uani 1 1 d . . .
N6B N 0.4218(4) 0.1950(2) 0.4992(2) 0.0392(14) Uani 1 1 d . . .
N7B N 0.3247(6) -0.1486(4) 0.2295(3) 0.092(3) Uani 1 1 d . . .
N8B N 0.4243(3) -0.0424(2) 0.5899(2) 0.0335(13) Uani 1 1 d . . .
C1B C 0.3917(4) 0.0455(2) 0.4896(2) 0.0261(14) Uani 1 1 d . . .
C2B C 0.3994(4) 0.0942(3) 0.5188(2) 0.0275(14) Uani 1 1 d . . .
C3B C 0.4053(4) 0.1381(2) 0.4829(2) 0.0294(14) Uani 1 1 d . . .
C4B C 0.3963(4) 0.1149(2) 0.4321(2) 0.0286(14) Uani 1 1 d . . .
C5B C 0.3957(4) 0.1393(2) 0.3808(2) 0.0297(14) Uani 1 1 d . . .
C6B C 0.3955(4) 0.1061(3) 0.3354(2) 0.0294(14) Uani 1 1 d . . .
C7B C 0.4036(4) 0.1260(3) 0.2819(2) 0.0306(15) Uani 1 1 d . . .
H7B H 0.4094 0.1636 0.2716 0.037 Uiso 1 1 calc R . .
C8B C 0.4015(4) 0.0813(3) 0.2494(2) 0.0311(15) Uani 1 1 d . . .
H8B H 0.4077 0.0819 0.2123 0.037 Uiso 1 1 calc R . .
C9B C 0.3882(4) 0.0330(3) 0.2807(2) 0.0290(14) Uani 1 1 d . . .
C10B C 0.3797(4) -0.0208(3) 0.2611(2) 0.0314(15) Uani 1 1 d . . .
C11B C 0.3692(4) -0.0674(3) 0.2937(2) 0.0392(17) Uani 1 1 d . . .
C12B C 0.3592(6) -0.1244(3) 0.2798(3) 0.063(3) Uani 1 1 d . . .
C13B C 0.3580(5) -0.1569(3) 0.3229(3) 0.0458(18) Uani 1 1 d . . .
H13B H 0.3536 -0.1962 0.3237 0.055 Uiso 1 1 calc R . .
C14B C 0.3649(4) -0.1195(3) 0.3673(2) 0.0309(15) Uani 1 1 d . . .
C15B C 0.3613(4) -0.1359(3) 0.4195(2) 0.0277(14) Uani 1 1 d . . .
C16B C 0.3671(4) -0.0973(2) 0.4610(2) 0.0277(14) Uani 1 1 d . . .
C17B C 0.3818(4) -0.1051(3) 0.5157(2) 0.0299(14) Uani 1 1 d . . .
H17B H 0.3830 -0.1394 0.5338 0.036 Uiso 1 1 calc R . .
C18B C 0.3941(4) -0.0525(3) 0.5372(2) 0.0286(14) Uani 1 1 d . . .
C19B C 0.3852(4) -0.0131(2) 0.4977(2) 0.0274(14) Uani 1 1 d . . .
C20B C 0.3933(4) 0.2009(3) 0.3771(2) 0.0345(16) Uani 1 1 d . . .
C21B C 0.3251(4) 0.2280(3) 0.3983(3) 0.0395(17) Uani 1 1 d . . .
H21B H 0.2812 0.2074 0.4144 0.047 Uiso 1 1 calc R . .
C22B C 0.3215(5) 0.2854(3) 0.3958(3) 0.049(2) Uani 1 1 d . . .
H22B H 0.2752 0.3038 0.4110 0.059 Uiso 1 1 calc R . .
C23B C 0.3814(6) 0.3156(3) 0.3725(3) 0.065(3) Uani 1 1 d . . .
H23B H 0.3785 0.3550 0.3725 0.078 Uiso 1 1 calc R . .
C24B C 0.4462(6) 0.2895(3) 0.3491(3) 0.057(2) Uani 1 1 d . . .
H24B H 0.4868 0.3109 0.3306 0.068 Uiso 1 1 calc R . .
C25B C 0.4548(5) 0.2320(3) 0.3514(3) 0.0476(19) Uani 1 1 d . . .
H25B H 0.5015 0.2143 0.3358 0.057 Uiso 1 1 calc R . .
C26B C 0.3797(4) -0.0294(3) 0.2026(2) 0.0311(15) Uani 1 1 d . . .
C27B C 0.4446(5) -0.0569(4) 0.1807(3) 0.073(3) Uani 1 1 d . . .
H27B H 0.4875 -0.0708 0.2028 0.088 Uiso 1 1 calc R . .
C28B C 0.4497(5) -0.0650(4) 0.1273(4) 0.073(3) Uani 1 1 d . . .
H28B H 0.4911 -0.0881 0.1123 0.087 Uiso 1 1 calc R . .
C29B C 0.3925(6) -0.0382(3) 0.0967(3) 0.065(3) Uani 1 1 d . . .
H29B H 0.4008 -0.0391 0.0597 0.078 Uiso 1 1 calc R . .
C30B C 0.3296(6) -0.0124(4) 0.1136(3) 0.074(3) Uani 1 1 d . . .
H30B H 0.2873 0.0000 0.0902 0.089 Uiso 1 1 calc R . .
C31B C 0.3241(5) -0.0023(4) 0.1703(3) 0.064(2) Uani 1 1 d . . .
H31B H 0.2836 0.0222 0.1844 0.077 Uiso 1 1 calc R . .
C32B C 0.3481(4) -0.1957(2) 0.4330(2) 0.0307(15) Uani 1 1 d . . .
C33B C 0.2801(4) -0.2092(3) 0.4646(3) 0.0355(16) Uani 1 1 d . . .
H33B H 0.2459 -0.1805 0.4781 0.043 Uiso 1 1 calc R . .
C34B C 0.2613(4) -0.2639(3) 0.4766(3) 0.0397(17) Uani 1 1 d . . .
H34B H 0.2141 -0.2728 0.4977 0.048 Uiso 1 1 calc R . .
C35B C 0.3130(5) -0.3061(3) 0.4573(3) 0.0414(17) Uani 1 1 d . . .
H35B H 0.3003 -0.3438 0.4649 0.050 Uiso 1 1 calc R . .
C36B C 0.3823(4) -0.2928(3) 0.4274(3) 0.0409(17) Uani 1 1 d . . .
H36B H 0.4186 -0.3213 0.4155 0.049 Uiso 1 1 calc R . .
C37B C 0.3991(4) -0.2377(2) 0.4145(2) 0.0315(15) Uani 1 1 d . . .
H37B H 0.4457 -0.2288 0.3929 0.038 Uiso 1 1 calc R . .
C38B C 0.1876(4) 0.0662(2) 0.4228(2) 0.0293(14) Uani 1 1 d . . .
C39B C 0.2041(4) 0.0653(3) 0.4771(2) 0.0296(14) Uani 1 1 d . . .
H39B H 0.2314 0.0342 0.4918 0.036 Uiso 1 1 calc R . .
C40B C 0.1813(4) 0.1089(3) 0.5097(3) 0.0359(16) Uani 1 1 d . . .
H40B H 0.1920 0.1069 0.5465 0.043 Uiso 1 1 calc R . .
C41B C 0.1439(4) 0.1546(3) 0.4897(3) 0.0435(18) Uani 1 1 d . . .
H41B H 0.1303 0.1850 0.5121 0.052 Uiso 1 1 calc R . .
C42B C 0.1256(5) 0.1563(3) 0.4355(3) 0.057(2) Uani 1 1 d . . .
H42B H 0.0995 0.1881 0.4213 0.068 Uiso 1 1 calc R . .
C43B C 0.1449(4) 0.1126(3) 0.4027(3) 0.0466(19) Uani 1 1 d . . .
H43B H 0.1295 0.1136 0.3665 0.056 Uiso 1 1 calc R . .
C44B C 0.1856(4) 0.0208(3) 0.3161(2) 0.0301(14) Uani 1 1 d . . .
C45B C 0.2042(4) 0.0713(3) 0.2913(3) 0.0433(18) Uani 1 1 d . . .
H45B H 0.2398 0.0976 0.3086 0.052 Uiso 1 1 calc R . .
C46B C 0.1719(4) 0.0836(3) 0.2422(3) 0.051(2) Uani 1 1 d . . .
H46B H 0.1837 0.1183 0.2263 0.061 Uiso 1 1 calc R . .
C47B C 0.1212(4) 0.0438(4) 0.2162(3) 0.050(2) Uani 1 1 d . . .
H47B H 0.0970 0.0522 0.1830 0.060 Uiso 1 1 calc R . .
C48B C 0.1067(4) -0.0065(3) 0.2381(3) 0.0463(19) Uani 1 1 d . . .
H48B H 0.0750 -0.0336 0.2190 0.056 Uiso 1 1 calc R . .
C49B C 0.1379(4) -0.0194(3) 0.2889(3) 0.0389(17) Uani 1 1 d . . .
H49B H 0.1267 -0.0545 0.3041 0.047 Uiso 1 1 calc R . .
C50B C 0.1620(4) -0.0506(3) 0.4065(2) 0.0325(15) Uani 1 1 d . . .
C51B C 0.1006(4) -0.0441(3) 0.4449(3) 0.0405(17) Uani 1 1 d . . .
H51B H 0.0944 -0.0093 0.4622 0.049 Uiso 1 1 calc R . .
C52B C 0.0485(4) -0.0885(3) 0.4578(3) 0.0489(19) Uani 1 1 d . . .
H52B H 0.0073 -0.0841 0.4843 0.059 Uiso 1 1 calc R . .
C53B C 0.0563(5) -0.1383(3) 0.4324(3) 0.053(2) Uani 1 1 d . . .
H53B H 0.0188 -0.1678 0.4405 0.063 Uiso 1 1 calc R . .
C54B C 0.1182(4) -0.1465(3) 0.3950(3) 0.0477(19) Uani 1 1 d . . .
H54B H 0.1245 -0.1817 0.3785 0.057 Uiso 1 1 calc R . .
C55B C 0.1708(4) -0.1024(3) 0.3821(3) 0.0398(17) Uani 1 1 d . . .
H55B H 0.2131 -0.1076 0.3565 0.048 Uiso 1 1 calc R . .
Co1C Co 0.86574(5) 0.00430(3) 0.11178(3) 0.0271(2) Uani 1 1 d . . .
P1C P 0.72686(10) -0.00720(7) 0.11753(6) 0.0277(4) Uani 1 1 d . . .
O1C O 0.8260(3) -0.08090(19) -0.09581(17) 0.0375(11) Uani 1 1 d . . .
O2C O 0.9476(3) -0.1211(2) -0.09801(19) 0.0616(16) Uani 1 1 d . . .
O3C O 0.8800(4) -0.2081(2) -0.0341(2) 0.0633(15) Uani 1 1 d . . .
O4C O 0.9794(3) -0.2141(2) 0.02349(19) 0.0495(13) Uani 1 1 d . . .
O5C O 0.9740(3) 0.1363(2) 0.2954(2) 0.0638(15) Uani 1 1 d . . .
O6C O 0.8817(4) 0.2026(2) 0.2823(2) 0.0722(18) Uani 1 1 d . . .
O7C O 0.8992(4) 0.0880(2) -0.1225(2) 0.0742(19) Uani 1 1 d . . .
O8C O 0.9399(3) 0.0043(2) -0.10177(19) 0.0586(15) Uani 1 1 d . . .
N1C N 0.8894(3) -0.0536(2) 0.06343(19) 0.0307(12) Uani 1 1 d . . .
N2C N 0.8947(3) -0.0425(2) 0.16792(19) 0.0307(12) Uani 1 1 d . . .
N3C N 0.8769(3) 0.0701(2) 0.15228(19) 0.0311(12) Uani 1 1 d . . .
N4C N 0.8686(3) 0.0453(2) 0.04946(19) 0.0305(12) Uani 1 1 d . . .
N5C N 0.8897(4) -0.0980(2) -0.0746(2) 0.0367(13) Uani 1 1 d . . .
N6C N 0.9237(4) -0.1884(3) 0.0013(2) 0.0461(15) Uani 1 1 d . . .
N7C N 0.9170(4) 0.1586(3) 0.2701(3) 0.0574(17) Uani 1 1 d . . .
N8C N 0.9086(4) 0.0498(3) -0.0905(2) 0.0528(17) Uani 1 1 d . . .
C1C C 0.8896(4) -0.0399(3) 0.0106(2) 0.0319(15) Uani 1 1 d . . .
C2C C 0.8977(4) -0.0894(3) -0.0177(2) 0.0299(14) Uani 1 1 d . . .
C3C C 0.9058(4) -0.1319(2) 0.0177(2) 0.0305(15) Uani 1 1 d . . .
C4C C 0.9000(4) -0.1093(3) 0.0687(2) 0.0316(15) Uani 1 1 d . . .
C5C C 0.9024(4) -0.1333(3) 0.1200(2) 0.0332(15) Uani 1 1 d . . .
C6C C 0.9011(4) -0.1002(3) 0.1649(2) 0.0356(16) Uani 1 1 d . . .
C7C C 0.9080(4) -0.1206(3) 0.2184(2) 0.0369(16) Uani 1 1 d . . .
H7C H 0.9145 -0.1583 0.2282 0.044 Uiso 1 1 calc R . .
C8C C 0.9037(4) -0.0772(3) 0.2517(2) 0.0348(16) Uani 1 1 d . . .
H8C H 0.9058 -0.0787 0.2890 0.042 Uiso 1 1 calc R . .
C9C C 0.8955(4) -0.0277(3) 0.2207(2) 0.0338(15) Uani 1 1 d . . .
C10C C 0.8879(4) 0.0265(3) 0.2399(2) 0.0332(15) Uani 1 1 d . . .
C11C C 0.8845(4) 0.0735(3) 0.2069(2) 0.0388(17) Uani 1 1 d . . .
C12C C 0.8866(5) 0.1314(3) 0.2214(3) 0.049(2) Uani 1 1 d . . .
C13C C 0.8741(4) 0.1631(3) 0.1776(3) 0.0406(17) Uani 1 1 d . . .
H13C H 0.8691 0.2023 0.1764 0.049 Uiso 1 1 calc R . .
C14C C 0.8703(4) 0.1252(3) 0.1345(2) 0.0310(15) Uani 1 1 d . . .
C15C C 0.8629(4) 0.1411(3) 0.0811(3) 0.0320(15) Uani 1 1 d . . .
C16C C 0.8649(4) 0.1021(2) 0.0397(2) 0.0289(14) Uani 1 1 d . . .
C17C C 0.8737(4) 0.1111(3) -0.0146(2) 0.0368(16) Uani 1 1 d . . .
H17C H 0.8722 0.1456 -0.0323 0.044 Uiso 1 1 calc R . .
C18C C 0.8849(4) 0.0592(3) -0.0370(2) 0.0400(17) Uani 1 1 d . . .
C19C C 0.8812(4) 0.0180(3) 0.0032(2) 0.0276(14) Uani 1 1 d . . .
C20C C 0.9030(4) -0.1938(3) 0.1246(3) 0.0384(17) Uani 1 1 d . . .
C21C C 0.8347(5) -0.2259(3) 0.1038(3) 0.0476(19) Uani 1 1 d . . .
H21C H 0.7892 -0.2079 0.0871 0.057 Uiso 1 1 calc R . .
C22C C 0.8346(6) -0.2827(3) 0.1079(3) 0.057(2) Uani 1 1 d . . .
H22C H 0.7885 -0.3037 0.0942 0.068 Uiso 1 1 calc R . .
C23C C 0.9007(7) -0.3097(4) 0.1317(3) 0.070(3) Uani 1 1 d . . .
H23C H 0.9012 -0.3491 0.1327 0.084 Uiso 1 1 calc R . .
C24C C 0.9644(7) -0.2802(4) 0.1535(3) 0.070(3) Uani 1 1 d . . .
H24C H 1.0072 -0.2987 0.1723 0.083 Uiso 1 1 calc R . .
C25C C 0.9680(5) -0.2223(3) 0.1485(3) 0.056(2) Uani 1 1 d . . .
H25C H 1.0154 -0.2023 0.1616 0.068 Uiso 1 1 calc R . .
C26C C 0.8761(4) 0.0341(3) 0.2976(2) 0.0317(15) Uani 1 1 d . . .
C27C C 0.9324(5) 0.0204(4) 0.3353(3) 0.067(3) Uani 1 1 d . . .
H27C H 0.9865 0.0082 0.3256 0.080 Uiso 1 1 calc R . .
C28C C 0.9098(6) 0.0244(3) 0.3906(3) 0.062(2) Uani 1 1 d . . .
H28C H 0.9487 0.0141 0.4171 0.075 Uiso 1 1 calc R . .
C29C C 0.8363(6) 0.0420(4) 0.4038(3) 0.067(2) Uani 1 1 d . . .
H29C H 0.8204 0.0410 0.4398 0.080 Uiso 1 1 calc R . .
C30C C 0.7804(5) 0.0623(3) 0.3670(3) 0.058(2) Uani 1 1 d . . .
H30C H 0.7292 0.0786 0.3775 0.070 Uiso 1 1 calc R . .
C31C C 0.8018(5) 0.0579(3) 0.3139(3) 0.0491(19) Uani 1 1 d . . .
H31C H 0.7643 0.0716 0.2881 0.059 Uiso 1 1 calc R . .
C32C C 0.8482(4) 0.2002(2) 0.0679(2) 0.0299(14) Uani 1 1 d . . .
C33C C 0.7778(4) 0.2125(3) 0.0370(3) 0.0370(16) Uani 1 1 d . . .
H33C H 0.7427 0.1832 0.0243 0.044 Uiso 1 1 calc R . .
C34C C 0.7588(4) 0.2665(3) 0.0250(3) 0.0414(17) Uani 1 1 d . . .
H34C H 0.7102 0.2746 0.0049 0.050 Uiso 1 1 calc R . .
C35C C 0.8112(5) 0.3086(3) 0.0424(3) 0.0450(18) Uani 1 1 d . . .
H35C H 0.7982 0.3460 0.0344 0.054 Uiso 1 1 calc R . .
C36C C 0.8815(4) 0.2974(3) 0.0708(3) 0.0432(18) Uani 1 1 d . . .
H36C H 0.9179 0.3268 0.0818 0.052 Uiso 1 1 calc R . .
C37C C 0.9000(4) 0.2423(3) 0.0838(2) 0.0355(16) Uani 1 1 d . . .
H37C H 0.9489 0.2345 0.1038 0.043 Uiso 1 1 calc R . .
C38C C 0.6616(4) 0.0486(3) 0.0929(2) 0.0298(14) Uani 1 1 d . . .
C39C C 0.5934(4) 0.0380(3) 0.0601(3) 0.0473(19) Uani 1 1 d . . .
H39C H 0.5847 0.0017 0.0461 0.057 Uiso 1 1 calc R . .
C40C C 0.5375(5) 0.0797(3) 0.0475(3) 0.055(2) Uani 1 1 d . . .
H40C H 0.4913 0.0716 0.0248 0.066 Uiso 1 1 calc R . .
C41C C 0.5481(5) 0.1306(4) 0.0669(3) 0.055(2) Uani 1 1 d . . .
H41C H 0.5094 0.1586 0.0576 0.066 Uiso 1 1 calc R . .
C42C C 0.6147(4) 0.1441(3) 0.1005(3) 0.050(2) Uani 1 1 d . . .
H42C H 0.6217 0.1807 0.1142 0.060 Uiso 1 1 calc R . .
C43C C 0.6721(4) 0.1016(3) 0.1141(3) 0.0442(18) Uani 1 1 d . . .
H43C H 0.7174 0.1095 0.1375 0.053 Uiso 1 1 calc R . .
C44C C 0.6875(4) -0.0171(3) 0.1846(2) 0.0310(15) Uani 1 1 d . . .
C45C C 0.6335(4) 0.0197(3) 0.2087(3) 0.0393(17) Uani 1 1 d . . .
H45C H 0.6163 0.0517 0.1901 0.047 Uiso 1 1 calc R . .
C46C C 0.6045(4) 0.0114(3) 0.2584(3) 0.0405(17) Uani 1 1 d . . .
H46C H 0.5694 0.0381 0.2745 0.049 Uiso 1 1 calc R . .
C47C C 0.6257(5) -0.0347(4) 0.2846(3) 0.055(2) Uani 1 1 d . . .
H47C H 0.6034 -0.0415 0.3186 0.066 Uiso 1 1 calc R . .
C48C C 0.6802(5) -0.0723(4) 0.2619(3) 0.054(2) Uani 1 1 d . . .
H48C H 0.6962 -0.1043 0.2810 0.065 Uiso 1 1 calc R . .
C49C C 0.7109(4) -0.0639(3) 0.2129(3) 0.0412(17) Uani 1 1 d . . .
H49C H 0.7483 -0.0899 0.1978 0.049 Uiso 1 1 calc R . .
C50C C 0.6935(4) -0.0669(3) 0.0779(2) 0.0312(15) Uani 1 1 d . . .
C51C C 0.6597(4) -0.1159(3) 0.1001(3) 0.0444(18) Uani 1 1 d . . .
H51C H 0.6513 -0.1184 0.1370 0.053 Uiso 1 1 calc R . .
C52C C 0.6387(4) -0.1607(3) 0.0665(3) 0.0433(18) Uani 1 1 d . . .
H52C H 0.6171 -0.1941 0.0810 0.052 Uiso 1 1 calc R . .
C53C C 0.6491(4) -0.1568(3) 0.0132(3) 0.0405(17) Uani 1 1 d . . .
H53C H 0.6345 -0.1872 -0.0092 0.049 Uiso 1 1 calc R . .
C54C C 0.6809(4) -0.1086(3) -0.0076(3) 0.0367(16) Uani 1 1 d . . .
H54C H 0.6873 -0.1061 -0.0447 0.044 Uiso 1 1 calc R . .
C55C C 0.7037(4) -0.0638(2) 0.0237(2) 0.0284(14) Uani 1 1 d . . .
H55C H 0.7263 -0.0312 0.0084 0.034 Uiso 1 1 calc R . .
C1S C 0.8002(5) 0.2731(4) 0.7259(3) 0.064(2) Uani 1 1 d . . .
H1S H 0.7397 0.2674 0.7344 0.076 Uiso 1 1 calc R . .
Cl1 Cl 0.85382(16) 0.21167(10) 0.74328(10) 0.0798(7) Uani 1 1 d . . .
Cl2 Cl 0.83704(15) 0.32864(11) 0.76356(10) 0.0828(8) Uani 1 1 d . . .
Cl3 Cl 0.80712(16) 0.28439(10) 0.65913(9) 0.0806(7) Uani 1 1 d . . .
C2S C 0.2935(5) 0.7356(4) 0.7701(3) 0.063(2) Uani 1 1 d . . .
H2S H 0.2330 0.7373 0.7600 0.076 Uiso 1 1 calc R . .
Cl4 Cl 0.30037(15) 0.72485(11) 0.83769(9) 0.0777(7) Uani 1 1 d . . .
Cl5 Cl 0.33930(15) 0.68309(12) 0.73447(10) 0.0835(8) Uani 1 1 d . . .
Cl6 Cl 0.34262(17) 0.80101(12) 0.75422(11) 0.0931(8) Uani 1 1 d . . .
C3S C 0.1201(7) 0.2371(4) 0.2780(5) 0.110(4) Uani 1 1 d . . .
H3S H 0.0966 0.1999 0.2875 0.132 Uiso 1 1 calc R . .
Cl7 Cl 0.22944(16) 0.23133(12) 0.27055(11) 0.0911(8) Uani 1 1 d . . .
Cl8 Cl 0.09970(18) 0.28451(13) 0.32999(12) 0.1043(9) Uani 1 1 d . . .
Cl9 Cl 0.0746(2) 0.2577(2) 0.21951(14) 0.1519(16) Uani 1 1 d . . .

loop_
_atom_site_aniso_label
_atom_site_aniso_U_11
_atom_site_aniso_U_22
_atom_site_aniso_U_33
_atom_site_aniso_U_23
_atom_site_aniso_U_13
_atom_site_aniso_U_12


Co1 0.0234(4) 0.0281(5) 0.0203(4) 0.0039(3) -0.0002(3) 0.0005(3)
P1 0.0247(9) 0.0324(9) 0.0195(8) 0.0032(7) -0.0012(7) 0.0015(7)
O1 0.056(3) 0.051(3) 0.038(3) -0.003(2) -0.006(2) -0.007(3)
O2 0.030(3) 0.047(3) 0.034(3) 0.006(2) 0.004(2) 0.000(2)
O3 0.053(3) 0.039(3) 0.041(3) 0.010(2) -0.009(2) -0.013(2)
O4 0.079(4) 0.048(3) 0.039(3) -0.010(2) 0.016(3) 0.007(3)
O5 0.076(4) 0.042(3) 0.051(3) -0.009(3) -0.002(3) 0.004(3)
O6 0.052(3) 0.063(3) 0.040(3) 0.004(3) 0.009(2) 0.008(3)
O7 0.042(3) 0.047(3) 0.026(2) 0.014(2) -0.004(2) 0.003(2)
O8 0.033(2) 0.037(3) 0.025(2) -0.0010(19) -0.0040(19) 0.000(2)
N1 0.022(3) 0.028(3) 0.024(3) 0.006(2) 0.001(2) 0.001(2)
N2 0.021(3) 0.030(3) 0.030(3) 0.000(2) -0.001(2) 0.003(2)
N3 0.023(3) 0.033(3) 0.027(3) 0.007(2) 0.006(2) 0.004(2)
N4 0.022(3) 0.032(3) 0.023(3) 0.002(2) 0.003(2) 0.000(2)
N5 0.031(3) 0.038(3) 0.026(3) -0.001(2) -0.007(3) -0.001(3)
N6 0.052(4) 0.040(4) 0.038(4) 0.001(3) -0.008(3) 0.001(3)
N7 0.047(4) 0.039(4) 0.036(4) 0.000(3) -0.001(3) -0.002(3)
N8 0.022(3) 0.047(4) 0.019(3) 0.005(3) 0.002(2) 0.009(2)
C1 0.023(3) 0.034(4) 0.020(3) 0.009(3) 0.003(3) -0.007(3)
C2 0.020(3) 0.035(4) 0.026(3) 0.003(3) -0.003(3) -0.003(3)
C3 0.021(3) 0.025(3) 0.034(4) -0.003(3) -0.001(3) -0.002(2)
C4 0.018(3) 0.033(4) 0.027(3) 0.006(3) 0.000(3) 0.002(3)
C5 0.025(3) 0.036(4) 0.027(4) 0.007(3) 0.003(3) -0.002(3)
C6 0.039(4) 0.036(4) 0.029(4) 0.004(3) -0.004(3) -0.002(3)
C7 0.046(4) 0.033(4) 0.022(3) 0.011(3) 0.006(3) 0.000(3)
C8 0.046(4) 0.036(4) 0.023(4) 0.002(3) 0.002(3) -0.003(3)
C9 0.034(4) 0.036(4) 0.019(3) 0.003(3) 0.001(3) 0.000(3)
C10 0.018(3) 0.040(4) 0.022(3) 0.002(3) 0.007(3) 0.000(3)
C11 0.029(3) 0.029(3) 0.026(4) -0.002(3) -0.002(3) 0.000(3)
C12 0.031(4) 0.039(4) 0.027(4) -0.001(3) 0.000(3) 0.004(3)
C13 0.035(4) 0.034(4) 0.035(4) -0.002(3) -0.001(3) 0.003(3)
C14 0.026(3) 0.027(3) 0.027(3) 0.000(3) 0.005(3) 0.002(3)
C15 0.019(3) 0.029(3) 0.038(4) 0.003(3) -0.003(3) 0.002(3)
C16 0.019(3) 0.030(3) 0.030(4) 0.008(3) 0.000(3) 0.005(3)
C17 0.020(3) 0.038(4) 0.029(4) 0.006(3) 0.000(3) -0.003(3)
C18 0.021(3) 0.044(4) 0.018(3) 0.006(3) 0.000(3) 0.000(3)
C19 0.019(3) 0.033(4) 0.022(3) -0.001(3) 0.002(2) 0.004(3)
C20 0.038(4) 0.024(3) 0.027(4) 0.008(3) 0.000(3) -0.013(3)
C21 0.040(4) 0.033(4) 0.028(4) 0.007(3) 0.005(3) 0.000(3)
C22 0.045(4) 0.036(4) 0.037(4) 0.000(3) 0.001(3) 0.011(3)
C23 0.071(5) 0.028(4) 0.035(4) 0.006(3) -0.008(4) 0.002(4)
C24 0.055(5) 0.037(4) 0.037(4) 0.010(3) 0.002(4) -0.016(3)
C25 0.044(4) 0.041(4) 0.039(4) 0.003(3) -0.004(3) 0.005(3)
C26 0.032(4) 0.033(4) 0.024(3) 0.002(3) 0.010(3) 0.000(3)
C27 0.028(4) 0.050(4) 0.026(4) 0.001(3) 0.003(3) 0.008(3)
C28 0.036(4) 0.047(4) 0.033(4) 0.006(3) -0.006(3) -0.010(3)
C29 0.058(5) 0.036(4) 0.025(4) 0.006(3) -0.005(3) 0.002(3)
C30 0.048(4) 0.051(4) 0.024(4) 0.011(3) 0.004(3) 0.000(4)
C31 0.047(4) 0.053(5) 0.034(4) 0.001(3) 0.000(3) -0.009(3)
C32 0.026(4) 0.040(4) 0.030(4) 0.005(3) 0.004(3) 0.004(3)
C33 0.045(4) 0.034(4) 0.036(4) 0.005(3) 0.002(3) 0.001(3)
C34 0.057(5) 0.035(4) 0.057(5) -0.007(4) 0.004(4) 0.005(3)
C35 0.065(6) 0.035(4) 0.064(6) 0.002(4) 0.005(4) 0.004(4)
C36 0.047(5) 0.046(4) 0.047(5) 0.020(4) 0.002(4) 0.012(4)
C37 0.045(4) 0.040(4) 0.045(4) 0.010(3) 0.012(4) 0.004(3)
C38 0.014(3) 0.037(4) 0.028(3) 0.008(3) 0.002(3) -0.002(3)
C39 0.019(3) 0.041(4) 0.025(3) -0.003(3) 0.001(3) 0.000(3)
C40 0.021(3) 0.041(4) 0.037(4) -0.002(3) -0.005(3) -0.001(3)
C41 0.027(4) 0.038(4) 0.042(4) -0.005(3) 0.012(3) -0.004(3)
C42 0.040(4) 0.033(4) 0.046(5) 0.014(3) 0.011(3) 0.001(3)
C43 0.030(4) 0.035(4) 0.033(4) 0.005(3) 0.002(3) 0.002(3)
C44 0.020(3) 0.055(4) 0.021(3) -0.003(3) 0.000(3) 0.007(3)
C45 0.032(4) 0.056(5) 0.028(4) 0.011(3) 0.002(3) 0.007(3)
C46 0.051(5) 0.074(6) 0.027(4) 0.011(4) -0.002(3) 0.020(4)
C47 0.037(4) 0.095(6) 0.018(4) -0.007(4) -0.009(3) 0.009(4)
C48 0.034(4) 0.073(5) 0.031(4) -0.005(4) -0.006(3) 0.007(4)
C49 0.027(4) 0.053(4) 0.029(4) -0.009(3) -0.005(3) 0.007(3)
C50 0.023(3) 0.029(3) 0.030(4) 0.007(3) -0.008(3) -0.004(3)
C51 0.032(4) 0.045(4) 0.023(3) 0.000(3) 0.001(3) -0.008(3)
C52 0.033(4) 0.050(5) 0.042(4) 0.007(3) 0.002(3) -0.009(3)
C53 0.035(4) 0.051(5) 0.042(4) 0.016(4) 0.000(3) -0.007(3)
C54 0.035(4) 0.033(4) 0.066(5) 0.009(4) 0.001(4) 0.004(3)
C55 0.022(3) 0.040(4) 0.048(4) 0.001(3) 0.006(3) 0.000(3)
Co1A 0.0247(5) 0.0296(5) 0.0205(4) 0.0039(3) -0.0023(3) 0.0031(3)
P1A 0.0263(9) 0.0337(9) 0.0195(8) 0.0025(7) 0.0002(7) 0.0026(7)
O1A 0.061(3) 0.062(3) 0.036(3) 0.000(2) 0.004(3) 0.023(3)
O2A 0.033(3) 0.054(3) 0.030(3) 0.003(2) -0.011(2) 0.002(2)
O3A 0.087(4) 0.040(3) 0.045(3) -0.006(2) -0.013(3) 0.000(3)
O4A 0.065(3) 0.045(3) 0.047(3) 0.007(2) 0.001(3) 0.023(3)
O5A 0.041(3) 0.060(3) 0.039(3) 0.008(2) -0.009(2) -0.002(2)
O6A 0.066(3) 0.043(3) 0.041(3) -0.006(2) -0.002(3) 0.006(3)
O7A 0.040(3) 0.051(3) 0.026(2) 0.014(2) 0.001(2) -0.001(2)
O8A 0.037(3) 0.041(3) 0.021(2) -0.0010(19) 0.0011(19) 0.004(2)
N1A 0.023(3) 0.031(3) 0.023(3) 0.004(2) 0.000(2) 0.006(2)
N2A 0.026(3) 0.039(3) 0.022(3) 0.002(2) -0.006(2) 0.002(2)
N3A 0.026(3) 0.032(3) 0.027(3) 0.009(2) -0.006(2) 0.002(2)
N4A 0.024(3) 0.032(3) 0.020(3) 0.004(2) 0.000(2) 0.003(2)
N5A 0.035(3) 0.042(3) 0.025(3) -0.005(3) 0.001(3) 0.007(3)
N6A 0.048(4) 0.043(4) 0.037(4) 0.002(3) -0.002(3) -0.003(3)
N7A 0.039(3) 0.048(4) 0.028(3) 0.003(3) -0.001(3) -0.005(3)
N8A 0.030(3) 0.044(4) 0.026(3) 0.014(3) -0.002(2) -0.006(3)
C1A 0.019(3) 0.036(4) 0.023(3) 0.006(3) 0.002(3) 0.004(3)
C2A 0.026(3) 0.033(4) 0.020(3) 0.004(3) 0.004(3) -0.003(3)
C3A 0.026(3) 0.026(3) 0.031(4) 0.001(3) 0.000(3) 0.004(3)
C4A 0.024(3) 0.034(4) 0.025(3) -0.003(3) 0.002(3) 0.004(3)
C5A 0.027(3) 0.035(4) 0.028(4) 0.008(3) 0.001(3) 0.004(3)
C6A 0.038(4) 0.032(4) 0.024(4) 0.003(3) -0.002(3) 0.002(3)
C7A 0.058(5) 0.030(4) 0.029(4) 0.014(3) -0.011(3) 0.002(3)
C8A 0.051(4) 0.034(4) 0.025(4) 0.006(3) -0.008(3) 0.012(3)
C9A 0.032(4) 0.039(4) 0.029(4) 0.003(3) -0.005(3) 0.004(3)
C10A 0.024(3) 0.041(4) 0.025(3) -0.001(3) -0.005(3) 0.006(3)
C11A 0.027(3) 0.032(4) 0.023(3) 0.001(3) -0.003(3) 0.004(3)
C12A 0.030(4) 0.041(4) 0.024(4) -0.003(3) 0.002(3) 0.006(3)
C13A 0.030(4) 0.027(3) 0.035(4) -0.005(3) -0.003(3) 0.002(3)
C14A 0.021(3) 0.036(4) 0.028(4) 0.002(3) -0.004(3) -0.001(3)
C15A 0.025(3) 0.032(3) 0.027(4) 0.006(3) 0.003(3) 0.001(3)
C16A 0.022(3) 0.032(4) 0.031(4) 0.009(3) -0.001(3) 0.003(3)
C17A 0.029(3) 0.036(4) 0.023(3) 0.020(3) 0.000(3) 0.003(3)
C18A 0.024(3) 0.035(4) 0.018(3) 0.004(3) -0.003(3) 0.005(3)
C19A 0.026(3) 0.027(3) 0.025(3) 0.004(3) -0.003(3) 0.005(3)
C20A 0.049(4) 0.033(4) 0.021(3) 0.003(3) 0.006(3) 0.006(3)
C21A 0.040(4) 0.042(4) 0.031(4) 0.005(3) -0.008(3) 0.004(3)
C22A 0.051(5) 0.041(4) 0.039(4) 0.001(3) -0.008(3) -0.004(3)
C23A 0.097(7) 0.030(4) 0.034(4) 0.006(3) -0.003(4) 0.000(4)
C24A 0.068(5) 0.044(5) 0.044(5) 0.009(4) -0.001(4) 0.018(4)
C25A 0.044(4) 0.040(4) 0.036(4) 0.010(3) -0.010(3) 0.009(3)
C26A 0.037(4) 0.035(4) 0.018(3) 0.009(3) -0.003(3) -0.002(3)
C27A 0.031(4) 0.054(4) 0.030(4) 0.004(3) -0.003(3) 0.008(3)
C28A 0.047(4) 0.053(5) 0.025(4) 0.005(3) -0.011(3) 0.002(4)
C29A 0.051(4) 0.040(4) 0.021(4) 0.002(3) 0.002(3) 0.002(3)
C30A 0.038(4) 0.036(4) 0.031(4) 0.010(3) 0.009(3) 0.005(3)
C31A 0.029(4) 0.035(4) 0.030(4) 0.004(3) -0.010(3) 0.003(3)
C32A 0.040(4) 0.033(4) 0.030(4) 0.007(3) -0.012(3) 0.006(3)
C33A 0.050(4) 0.035(4) 0.039(4) 0.005(3) -0.004(3) 0.006(3)
C34A 0.088(6) 0.042(5) 0.046(5) -0.014(4) -0.014(4) 0.008(4)
C35A 0.080(6) 0.030(4) 0.053(5) 0.017(4) -0.006(4) -0.005(4)
C36A 0.052(5) 0.051(5) 0.062(5) 0.013(4) -0.015(4) -0.010(4)
C37A 0.043(4) 0.040(4) 0.046(4) 0.012(3) -0.010(3) -0.006(3)
C38A 0.024(3) 0.038(4) 0.030(4) 0.003(3) -0.008(3) 0.008(3)
C39A 0.028(4) 0.041(4) 0.033(4) 0.012(3) 0.003(3) 0.002(3)
C40A 0.044(4) 0.034(4) 0.062(5) 0.007(4) -0.012(4) 0.000(3)
C41A 0.038(4) 0.036(4) 0.047(5) 0.001(3) -0.018(3) 0.005(3)
C42A 0.026(4) 0.043(4) 0.034(4) -0.006(3) -0.007(3) 0.009(3)
C43A 0.030(4) 0.039(4) 0.026(4) -0.004(3) -0.002(3) 0.007(3)
C44A 0.033(4) 0.046(4) 0.023(3) -0.001(3) -0.003(3) -0.005(3)
C45A 0.033(4) 0.062(5) 0.030(4) 0.008(3) -0.005(3) -0.009(3)
C46A 0.046(5) 0.084(6) 0.026(4) 0.017(4) -0.001(3) -0.016(4)
C47A 0.038(5) 0.099(7) 0.031(4) -0.003(5) 0.003(3) -0.019(5)
C48A 0.036(4) 0.089(6) 0.033(4) -0.024(4) 0.007(3) -0.008(4)
C49A 0.028(4) 0.059(5) 0.035(4) -0.006(3) 0.004(3) 0.000(3)
C50A 0.027(4) 0.041(4) 0.029(4) 0.009(3) 0.006(3) 0.002(3)
C51A 0.030(4) 0.049(4) 0.042(4) 0.001(3) -0.005(3) 0.009(3)
C52A 0.034(4) 0.039(4) 0.077(6) 0.008(4) 0.003(4) 0.003(3)
C53A 0.044(4) 0.062(5) 0.038(4) 0.015(4) 0.007(4) 0.011(4)
C54A 0.031(4) 0.044(4) 0.043(4) -0.001(3) -0.005(3) 0.011(3)
C55A 0.028(4) 0.047(4) 0.034(4) 0.007(3) 0.001(3) 0.008(3)
Co1B 0.0259(5) 0.0291(5) 0.0199(4) 0.0039(3) -0.0015(3) -0.0003(3)
P1B 0.0260(9) 0.0320(9) 0.0217(8) 0.0039(7) -0.0016(7) -0.0001(7)
O1B 0.037(3) 0.046(3) 0.028(3) 0.007(2) 0.008(2) 0.002(2)
O2B 0.057(3) 0.071(4) 0.031(3) -0.009(3) -0.003(2) -0.025(3)
O3B 0.051(3) 0.039(3) 0.046(3) 0.011(2) -0.006(2) -0.011(2)
O4B 0.073(4) 0.046(3) 0.051(3) -0.014(3) 0.013(3) 0.001(3)
O5B 0.119(6) 0.114(6) 0.077(5) -0.003(4) -0.031(4) 0.020(5)
O6B 0.205(8) 0.043(4) 0.041(4) -0.008(3) 0.000(4) -0.005(4)
O7B 0.073(4) 0.039(3) 0.028(3) 0.008(2) -0.006(2) 0.009(2)
O8B 0.051(3) 0.037(3) 0.030(3) -0.003(2) -0.012(2) 0.008(2)
N1B 0.018(3) 0.039(3) 0.021(3) 0.006(2) 0.005(2) -0.002(2)
N2B 0.031(3) 0.036(3) 0.018(3) 0.002(2) -0.002(2) -0.005(2)
N3B 0.031(3) 0.033(3) 0.028(3) 0.004(2) -0.006(2) -0.003(2)
N4B 0.025(3) 0.031(3) 0.022(3) -0.002(2) 0.001(2) 0.001(2)
N5B 0.043(3) 0.033(3) 0.024(3) 0.001(2) -0.002(3) 0.005(3)
N6B 0.049(4) 0.041(3) 0.028(3) 0.001(3) -0.006(3) -0.001(3)
N7B 0.108(7) 0.085(7) 0.085(6) 0.024(5) -0.032(5) -0.003(5)
N8B 0.045(3) 0.034(3) 0.022(3) 0.000(2) -0.008(2) 0.010(3)
C1B 0.027(3) 0.029(3) 0.023(3) 0.006(3) 0.004(3) 0.000(3)
C2B 0.022(3) 0.037(4) 0.023(3) 0.001(3) 0.003(3) 0.000(3)
C3B 0.037(4) 0.032(4) 0.020(3) 0.000(3) 0.000(3) -0.006(3)
C4B 0.029(3) 0.027(3) 0.030(4) 0.003(3) -0.003(3) 0.001(3)
C5B 0.031(4) 0.032(4) 0.027(4) 0.009(3) -0.002(3) -0.006(3)
C6B 0.025(3) 0.036(4) 0.027(4) 0.004(3) -0.002(3) -0.005(3)
C7B 0.037(4) 0.030(4) 0.025(3) 0.011(3) 0.003(3) -0.002(3)
C8B 0.037(4) 0.039(4) 0.018(3) 0.009(3) -0.003(3) 0.002(3)
C9B 0.028(3) 0.034(4) 0.025(3) 0.000(3) -0.002(3) 0.004(3)
C10B 0.027(3) 0.044(4) 0.023(3) 0.000(3) -0.001(3) -0.002(3)
C11B 0.060(5) 0.038(4) 0.020(4) -0.002(3) 0.000(3) -0.004(3)
C12B 0.133(8) 0.040(4) 0.017(4) -0.006(3) -0.005(4) -0.020(5)
C13B 0.067(5) 0.035(4) 0.035(4) 0.002(3) -0.001(4) -0.006(4)
C14B 0.028(4) 0.035(4) 0.029(4) -0.002(3) -0.007(3) -0.002(3)
C15B 0.025(3) 0.037(4) 0.022(3) 0.005(3) 0.002(3) 0.005(3)
C16B 0.026(3) 0.028(3) 0.029(4) 0.005(3) -0.002(3) 0.007(3)
C17B 0.027(3) 0.034(4) 0.029(4) 0.007(3) 0.004(3) 0.005(3)
C18B 0.035(4) 0.038(4) 0.012(3) 0.003(3) 0.003(3) 0.006(3)
C19B 0.024(3) 0.031(3) 0.027(3) -0.003(3) -0.001(3) 0.005(3)
C20B 0.039(4) 0.041(4) 0.023(3) 0.003(3) -0.011(3) -0.010(3)
C21B 0.045(4) 0.042(4) 0.032(4) 0.002(3) -0.006(3) 0.001(3)
C22B 0.082(6) 0.030(4) 0.036(4) 0.002(3) -0.010(4) 0.004(4)
C23B 0.123(8) 0.033(4) 0.038(5) 0.009(4) -0.012(5) -0.001(5)
C24B 0.094(7) 0.041(5) 0.034(4) 0.013(4) 0.001(4) -0.026(4)
C25B 0.054(5) 0.050(5) 0.039(4) 0.008(3) -0.003(4) -0.020(4)
C26B 0.035(4) 0.041(4) 0.017(3) 0.001(3) 0.001(3) 0.007(3)
C27B 0.050(5) 0.122(8) 0.046(5) -0.033(5) 0.006(4) -0.010(5)
C28B 0.060(6) 0.089(7) 0.069(7) -0.013(5) 0.006(5) 0.012(5)
C29B 0.095(7) 0.068(6) 0.035(5) 0.028(4) 0.030(5) 0.044(5)
C30B 0.064(6) 0.110(8) 0.049(6) 0.032(5) -0.008(5) 0.006(6)
C31B 0.075(6) 0.070(6) 0.047(5) 0.004(4) 0.003(4) 0.011(5)
C32B 0.035(4) 0.030(4) 0.027(4) 0.001(3) -0.009(3) -0.002(3)
C33B 0.039(4) 0.033(4) 0.034(4) 0.006(3) 0.004(3) 0.010(3)
C34B 0.045(4) 0.045(4) 0.029(4) 0.009(3) 0.000(3) -0.003(3)
C35B 0.061(5) 0.030(4) 0.033(4) 0.003(3) -0.010(4) 0.002(3)
C36B 0.050(5) 0.036(4) 0.036(4) -0.003(3) -0.006(3) 0.009(3)
C37B 0.036(4) 0.034(4) 0.025(3) -0.001(3) -0.003(3) 0.006(3)
C38B 0.026(3) 0.029(3) 0.033(4) 0.005(3) 0.006(3) 0.001(3)
C39B 0.027(3) 0.033(4) 0.029(4) 0.002(3) -0.003(3) 0.000(3)
C40B 0.026(4) 0.047(4) 0.035(4) -0.004(3) 0.001(3) -0.003(3)
C41B 0.044(4) 0.030(4) 0.057(5) -0.002(3) 0.017(4) 0.005(3)
C42B 0.066(5) 0.040(4) 0.064(6) 0.016(4) 0.018(4) 0.028(4)
C43B 0.051(5) 0.053(5) 0.037(4) 0.006(4) 0.002(3) 0.022(4)
C44B 0.027(3) 0.043(4) 0.020(3) 0.004(3) 0.000(3) -0.001(3)
C45B 0.038(4) 0.062(5) 0.030(4) 0.012(3) -0.007(3) 0.002(3)
C46B 0.048(5) 0.075(6) 0.030(4) 0.014(4) -0.006(3) 0.001(4)
C47B 0.032(4) 0.092(6) 0.027(4) 0.011(4) -0.004(3) 0.010(4)
C48B 0.027(4) 0.077(6) 0.034(4) -0.011(4) -0.004(3) 0.006(4)
C49B 0.024(4) 0.057(5) 0.035(4) -0.008(3) -0.002(3) 0.003(3)
C50B 0.028(4) 0.039(4) 0.030(4) 0.006(3) -0.008(3) 0.001(3)
C51B 0.040(4) 0.044(4) 0.038(4) 0.000(3) -0.001(3) -0.004(3)
C52B 0.038(4) 0.058(5) 0.050(5) 0.001(4) 0.011(4) -0.018(4)
C53B 0.051(5) 0.052(5) 0.054(5) 0.012(4) -0.015(4) -0.018(4)
C54B 0.041(4) 0.040(4) 0.062(5) 0.004(4) -0.012(4) -0.003(3)
C55B 0.026(4) 0.047(4) 0.046(4) 0.005(3) 0.001(3) -0.003(3)
Co1C 0.0272(5) 0.0352(5) 0.0191(4) 0.0027(4) -0.0003(3) 0.0062(4)
P1C 0.0272(9) 0.0322(9) 0.0239(9) 0.0039(7) 0.0001(7) 0.0035(7)
O1C 0.030(3) 0.053(3) 0.029(3) 0.002(2) -0.005(2) 0.001(2)
O2C 0.061(4) 0.092(4) 0.033(3) -0.009(3) -0.001(3) 0.036(3)
O3C 0.089(4) 0.049(3) 0.051(3) -0.005(3) -0.021(3) 0.007(3)
O4C 0.050(3) 0.053(3) 0.046(3) 0.009(2) 0.005(2) 0.018(3)
O5C 0.062(4) 0.073(4) 0.056(4) 0.007(3) -0.016(3) -0.005(3)
O6C 0.117(5) 0.053(4) 0.048(4) -0.010(3) 0.006(3) 0.019(3)
O7C 0.131(6) 0.064(4) 0.027(3) 0.009(3) 0.008(3) -0.039(4)
O8C 0.078(4) 0.061(4) 0.036(3) -0.010(3) 0.022(3) -0.032(3)
N1C 0.030(3) 0.039(3) 0.024(3) 0.006(2) -0.004(2) 0.007(2)
N2C 0.033(3) 0.038(3) 0.021(3) 0.006(2) 0.006(2) 0.009(2)
N3C 0.033(3) 0.039(3) 0.021(3) 0.000(2) 0.002(2) 0.006(2)
N4C 0.032(3) 0.038(3) 0.023(3) -0.002(2) 0.001(2) 0.005(2)
N5C 0.039(3) 0.045(3) 0.026(3) -0.001(3) -0.001(3) 0.002(3)
N6C 0.055(4) 0.053(4) 0.030(3) 0.004(3) -0.003(3) 0.016(3)
N7C 0.056(4) 0.068(5) 0.048(4) -0.002(4) -0.002(3) -0.002(4)
N8C 0.076(5) 0.049(4) 0.032(4) -0.004(3) 0.009(3) -0.029(4)
C1C 0.027(4) 0.045(4) 0.023(4) 0.005(3) 0.002(3) 0.004(3)
C2C 0.031(4) 0.038(4) 0.021(3) -0.001(3) -0.001(3) 0.010(3)
C3C 0.038(4) 0.030(4) 0.024(3) -0.003(3) -0.001(3) 0.010(3)
C4C 0.032(4) 0.032(4) 0.031(4) -0.001(3) 0.001(3) 0.008(3)
C5C 0.023(3) 0.046(4) 0.031(4) 0.003(3) 0.003(3) 0.013(3)
C6C 0.030(4) 0.050(4) 0.028(4) 0.004(3) 0.000(3) 0.015(3)
C7C 0.046(4) 0.037(4) 0.028(4) 0.011(3) 0.002(3) 0.009(3)
C8C 0.041(4) 0.047(4) 0.017(3) 0.003(3) -0.003(3) 0.010(3)
C9C 0.029(4) 0.048(4) 0.024(4) 0.003(3) -0.002(3) 0.004(3)
C10C 0.031(4) 0.045(4) 0.023(3) 0.002(3) -0.003(3) 0.003(3)
C11C 0.048(4) 0.046(4) 0.022(4) 0.003(3) -0.003(3) 0.008(3)
C12C 0.076(6) 0.044(4) 0.028(4) -0.010(3) -0.003(4) 0.016(4)
C13C 0.057(5) 0.034(4) 0.031(4) 0.001(3) 0.000(3) 0.012(3)
C14C 0.039(4) 0.035(4) 0.018(3) -0.001(3) -0.004(3) -0.005(3)
C15C 0.024(3) 0.036(4) 0.035(4) 0.003(3) -0.003(3) -0.001(3)
C16C 0.025(3) 0.032(4) 0.029(4) 0.004(3) 0.001(3) -0.001(3)
C17C 0.049(4) 0.036(4) 0.025(4) 0.000(3) 0.002(3) -0.006(3)
C18C 0.040(4) 0.057(5) 0.023(4) 0.005(3) 0.000(3) -0.014(3)
C19C 0.026(3) 0.039(4) 0.019(3) 0.000(3) 0.000(3) 0.000(3)
C20C 0.044(4) 0.046(4) 0.026(4) 0.005(3) 0.006(3) 0.020(3)
C21C 0.070(5) 0.039(4) 0.034(4) 0.000(3) 0.013(4) 0.013(4)
C22C 0.078(6) 0.050(5) 0.042(5) 0.001(4) 0.025(4) 0.004(4)
C23C 0.123(9) 0.043(5) 0.044(5) 0.007(4) 0.032(6) 0.026(6)
C24C 0.114(8) 0.046(5) 0.049(5) 0.009(4) 0.001(5) 0.035(5)
C25C 0.071(6) 0.064(5) 0.034(4) -0.001(4) -0.009(4) 0.032(4)
C26C 0.030(4) 0.042(4) 0.023(3) 0.000(3) -0.001(3) -0.011(3)
C27C 0.056(5) 0.098(7) 0.048(5) -0.016(5) -0.011(4) 0.037(5)
C28C 0.080(6) 0.064(6) 0.042(5) 0.013(4) -0.031(5) 0.012(5)
C29C 0.086(7) 0.082(6) 0.034(5) 0.019(4) 0.015(5) 0.012(5)
C30C 0.068(6) 0.062(5) 0.044(5) 0.000(4) 0.005(4) -0.009(4)
C31C 0.045(5) 0.061(5) 0.041(5) -0.004(4) -0.004(4) -0.004(4)
C32C 0.033(4) 0.031(4) 0.025(3) 0.003(3) 0.006(3) 0.001(3)
C33C 0.047(4) 0.032(4) 0.032(4) 0.002(3) -0.002(3) -0.004(3)
C34C 0.046(4) 0.040(4) 0.038(4) 0.006(3) -0.003(3) 0.003(3)
C35C 0.061(5) 0.038(4) 0.036(4) -0.001(3) 0.001(4) 0.013(4)
C36C 0.049(5) 0.042(4) 0.038(4) -0.002(3) 0.006(4) -0.008(3)
C37C 0.035(4) 0.043(4) 0.028(4) -0.008(3) 0.001(3) -0.005(3)
C38C 0.025(3) 0.039(4) 0.026(3) 0.005(3) 0.004(3) 0.006(3)
C39C 0.050(5) 0.051(5) 0.042(4) -0.008(4) -0.006(4) 0.010(4)
C40C 0.061(5) 0.067(6) 0.038(4) -0.008(4) -0.016(4) 0.032(4)
C41C 0.042(5) 0.076(6) 0.047(5) 0.018(4) 0.003(4) 0.028(4)
C42C 0.037(4) 0.040(4) 0.075(6) 0.008(4) 0.014(4) 0.011(3)
C43C 0.031(4) 0.036(4) 0.065(5) 0.008(4) -0.001(4) 0.005(3)
C44C 0.021(3) 0.048(4) 0.023(3) -0.002(3) 0.000(3) 0.004(3)
C45C 0.028(4) 0.057(5) 0.033(4) -0.007(3) -0.005(3) -0.003(3)
C46C 0.023(4) 0.070(5) 0.028(4) -0.003(4) 0.002(3) 0.003(3)
C47C 0.040(5) 0.094(7) 0.032(4) 0.003(4) 0.007(4) 0.003(4)
C48C 0.053(5) 0.081(6) 0.029(4) 0.021(4) -0.003(4) 0.006(4)
C49C 0.040(4) 0.052(4) 0.031(4) 0.007(3) 0.004(3) 0.007(3)
C50C 0.028(4) 0.039(4) 0.027(4) 0.002(3) 0.002(3) 0.002(3)
C51C 0.056(5) 0.041(4) 0.037(4) 0.010(3) 0.006(3) -0.005(3)
C52C 0.044(4) 0.034(4) 0.052(5) 0.010(3) 0.002(4) -0.009(3)
C53C 0.030(4) 0.040(4) 0.051(5) -0.003(3) -0.008(3) 0.001(3)
C54C 0.027(4) 0.050(4) 0.033(4) -0.008(3) 0.003(3) 0.005(3)
C55C 0.024(3) 0.029(3) 0.032(4) -0.002(3) -0.003(3) 0.003(3)
C1S 0.060(5) 0.085(6) 0.046(5) -0.007(4) -0.008(4) 0.018(5)
Cl1 0.0894(17) 0.0812(17) 0.0689(16) 0.0037(13) -0.0222(13) 0.0211(13)
Cl2 0.0748(16) 0.0887(18) 0.0841(18) -0.0268(14) -0.0254(13) 0.0049(13)
Cl3 0.1043(19) 0.0866(17) 0.0514(14) -0.0049(12) -0.0176(12) 0.0363(14)
C2S 0.050(5) 0.089(7) 0.050(5) -0.012(5) 0.002(4) -0.008(4)
Cl4 0.0869(17) 0.0919(18) 0.0537(14) -0.0086(12) 0.0111(12) -0.0213(13)
Cl5 0.0721(16) 0.111(2) 0.0670(16) -0.0293(14) 0.0001(12) 0.0231(14)
Cl6 0.0888(19) 0.108(2) 0.0819(19) 0.0141(16) 0.0101(15) -0.0206(16)
C3S 0.115(9) 0.050(6) 0.164(12) -0.017(7) -0.017(8) 0.029(6)
Cl7 0.0745(17) 0.104(2) 0.095(2) -0.0197(16) -0.0230(14) 0.0192(14)
Cl8 0.097(2) 0.114(2) 0.102(2) -0.0109(18) 0.0029(17) 0.0185(17)
Cl9 0.114(3) 0.248(5) 0.095(2) 0.033(3) -0.026(2) 0.046(3)

_geom_special_details            
;
All esds (except the esd in the dihedral angle between two l.s. planes)
are estimated using the full covariance matrix. The cell esds are taken
into account individually in the estimation of esds in distances, angles
and torsion angles; correlations between esds in cell parameters are only
used when they are defined by crystal symmetry. An approximate (isotropic)
treatment of cell esds is used for estimating esds involving l.s. planes.
;

loop_
_geom_bond_atom_site_label_1
_geom_bond_atom_site_label_2
_geom_bond_distance
_geom_bond_site_symmetry_2
_geom_bond_publ_flag
Co1 N1 1.875(5) . ?
Co1 N2 1.886(5) . ?
Co1 N4 1.889(5) . ?
Co1 N3 1.896(5) . ?
Co1 P1 2.2424(17) . ?
P1 C44 1.813(6) . ?
P1 C50 1.821(6) . ?
P1 C38 1.822(6) . ?
O1 N5 1.212(6) . ?
O2 N5 1.217(6) . ?
O3 N6 1.237(7) . ?
O4 N6 1.233(7) . ?
O5 N7 1.215(7) . ?
O6 N7 1.248(7) . ?
O7 N8 1.231(6) . ?
O8 N8 1.237(6) . ?
N1 C1 1.368(7) . ?
N1 C4 1.372(7) . ?
N2 C9 1.386(7) . ?
N2 C6 1.402(8) . ?
N3 C11 1.384(7) . ?
N3 C14 1.403(7) . ?
N4 C19 1.354(7) . ?
N4 C16 1.390(7) . ?
N5 C2 1.439(8) . ?
N6 C3 1.449(8) . ?
N7 C12 1.439(8) . ?
N8 C18 1.455(7) . ?
C1 C2 1.401(8) . ?
C1 C19 1.421(8) . ?
C2 C3 1.405(8) . ?
C3 C4 1.425(8) . ?
C4 C5 1.413(8) . ?
C5 C6 1.400(9) . ?
C5 C20 1.496(8) . ?
C6 C7 1.458(8) . ?
C7 C8 1.343(9) . ?
C7 H7 0.9500 . ?
C8 C9 1.435(8) . ?
C8 H8 0.9500 . ?
C9 C10 1.396(8) . ?
C10 C11 1.409(8) . ?
C10 C26 1.489(8) . ?
C11 C12 1.441(8) . ?
C12 C13 1.369(9) . ?
C13 C14 1.444(8) . ?
C13 H13 0.9500 . ?
C14 C15 1.389(8) . ?
C15 C16 1.417(8) . ?
C15 C32 1.489(8) . ?
C16 C17 1.406(8) . ?
C17 C18 1.369(8) . ?
C17 H17 0.9500 . ?
C18 C19 1.412(8) . ?
C20 C25 1.374(9) . ?
C20 C21 1.384(9) . ?
C21 C22 1.373(9) . ?
C21 H21 0.9500 . ?
C22 C23 1.392(9) . ?
C22 H22 0.9500 . ?
C23 C24 1.390(10) . ?
C23 H23 0.9500 . ?
C24 C25 1.426(9) . ?
C24 H24 0.9500 . ?
C25 H25 0.9500 . ?
C26 C31 1.373(9) . ?
C26 C27 1.419(9) . ?
C27 C28 1.415(9) . ?
C27 H27 0.9500 . ?
C28 C29 1.367(9) . ?
C28 H28 0.9500 . ?
C29 C30 1.382(9) . ?
C29 H29 0.9500 . ?
C30 C31 1.390(9) . ?
C30 H30 0.9500 . ?
C31 H31 0.9500 . ?
C32 C37 1.352(9) . ?
C32 C33 1.382(9) . ?
C33 C34 1.369(9) . ?
C33 H33 0.9500 . ?
C34 C35 1.367(10) . ?
C34 H34 0.9500 . ?
C35 C36 1.374(10) . ?
C35 H35 0.9500 . ?
C36 C37 1.408(9) . ?
C36 H36 0.9500 . ?
C37 H37 0.9500 . ?
C38 C43 1.382(8) . ?
C38 C39 1.400(8) . ?
C39 C40 1.362(8) . ?
C39 H39 0.9500 . ?
C40 C41 1.362(9) . ?
C40 H40 0.9500 . ?
C41 C42 1.385(9) . ?
C41 H41 0.9500 . ?
C42 C43 1.415(9) . ?
C42 H42 0.9500 . ?
C43 H43 0.9500 . ?
C44 C45 1.380(9) . ?
C44 C49 1.392(9) . ?
C45 C46 1.419(9) . ?
C45 H45 0.9500 . ?
C46 C47 1.357(11) . ?
C46 H46 0.9500 . ?
C47 C48 1.367(10) . ?
C47 H47 0.9500 . ?
C48 C49 1.411(9) . ?
C48 H48 0.9500 . ?
C49 H49 0.9500 . ?
C50 C55 1.375(9) . ?
C50 C51 1.428(8) . ?
C51 C52 1.384(9) . ?
C51 H51 0.9500 . ?
C52 C53 1.363(10) . ?
C52 H52 0.9500 . ?
C53 C54 1.372(9) . ?
C53 H53 0.9500 . ?
C54 C55 1.417(9) . ?
C54 H54 0.9500 . ?
C55 H55 0.9500 . ?
Co1A N2A 1.874(5) . ?
Co1A N4A 1.882(5) . ?
Co1A N1A 1.891(5) . ?
Co1A N3A 1.898(5) . ?
Co1A P1A 2.2432(17) . ?
P1A C44A 1.812(6) . ?
P1A C38A 1.818(6) . ?
P1A C50A 1.841(6) . ?
O1A N5A 1.235(6) . ?
O2A N5A 1.219(6) . ?
O3A N6A 1.221(7) . ?
O4A N6A 1.229(7) . ?
O5A N7A 1.226(7) . ?
O6A N7A 1.235(7) . ?
O7A N8A 1.241(6) . ?
O8A N8A 1.237(6) . ?
N1A C1A 1.367(7) . ?
N1A C4A 1.375(7) . ?
N2A C9A 1.368(8) . ?
N2A C6A 1.402(8) . ?
N3A C11A 1.385(7) . ?
N3A C14A 1.420(7) . ?
N4A C19A 1.372(7) . ?
N4A C16A 1.392(7) . ?
N5A C2A 1.452(8) . ?
N6A C3A 1.448(8) . ?
N7A C12A 1.451(8) . ?
N8A C18A 1.438(8) . ?
C1A C2A 1.404(8) . ?
C1A C19A 1.407(8) . ?
C2A C3A 1.383(8) . ?
C3A C4A 1.405(8) . ?
C4A C5A 1.409(8) . ?
C5A C6A 1.417(8) . ?
C5A C20A 1.496(9) . ?
C6A C7A 1.431(8) . ?
C7A C8A 1.349(9) . ?
C7A H7A 0.9500 . ?
C8A C9A 1.457(8) . ?
C8A H8A 0.9500 . ?
C9A C10A 1.408(9) . ?
C10A C11A 1.400(8) . ?
C10A C26A 1.490(8) . ?
C11A C12A 1.427(8) . ?
C12A C13A 1.372(9) . ?
C13A C14A 1.423(8) . ?
C13A H13A 0.9500 . ?
C14A C15A 1.394(8) . ?
C15A C16A 1.421(8) . ?
C15A C32A 1.495(8) . ?
C16A C17A 1.404(8) . ?
C17A C18A 1.365(8) . ?
C17A H17A 0.9500 . ?
C18A C19A 1.430(8) . ?
C20A C25A 1.384(9) . ?
C20A C21A 1.415(9) . ?
C21A C22A 1.381(9) . ?
C21A H21A 0.9500 . ?
C22A C23A 1.398(10) . ?
C22A H22A 0.9500 . ?
C23A C24A 1.363(11) . ?
C23A H23A 0.9500 . ?
C24A C25A 1.394(9) . ?
C24A H24A 0.9500 . ?
C25A H25A 0.9500 . ?
C26A C27A 1.398(8) . ?
C26A C31A 1.398(8) . ?
C27A C28A 1.386(9) . ?
C27A H27A 0.9500 . ?
C28A C29A 1.392(9) . ?
C28A H28A 0.9500 . ?
C29A C30A 1.367(9) . ?
C29A H29A 0.9500 . ?
C30A C31A 1.384(8) . ?
C30A H30A 0.9500 . ?
C31A H31A 0.9500 . ?
C32A C33A 1.375(9) . ?
C32A C37A 1.407(9) . ?
C33A C34A 1.410(9) . ?
C33A H33A 0.9500 . ?
C34A C35A 1.386(11) . ?
C34A H34A 0.9500 . ?
C35A C36A 1.384(11) . ?
C35A H35A 0.9500 . ?
C36A C37A 1.366(10) . ?
C36A H36A 0.9500 . ?
C37A H37A 0.9500 . ?
C38A C39A 1.395(8) . ?
C38A C43A 1.409(8) . ?
C39A C40A 1.390(9) . ?
C39A H39A 0.9500 . ?
C40A C41A 1.364(10) . ?
C40A H40A 0.9500 . ?
C41A C42A 1.392(9) . ?
C41A H41A 0.9500 . ?
C42A C43A 1.385(9) . ?
C42A H42A 0.9500 . ?
C43A H43A 0.9500 . ?
C44A C45A 1.392(9) . ?
C44A C49A 1.412(9) . ?
C45A C46A 1.391(9) . ?
C45A H45A 0.9500 . ?
C46A C47A 1.370(11) . ?
C46A H46A 0.9500 . ?
C47A C48A 1.380(11) . ?
C47A H47A 0.9500 . ?
C48A C49A 1.404(9) . ?
C48A H48A 0.9500 . ?
C49A H49A 0.9500 . ?
C50A C51A 1.369(9) . ?
C50A C55A 1.406(9) . ?
C51A C52A 1.366(9) . ?
C51A H51A 0.9500 . ?
C52A C53A 1.419(10) . ?
C52A H52A 0.9500 . ?
C53A C54A 1.356(10) . ?
C53A H53A 0.9500 . ?
C54A C55A 1.382(9) . ?
C54A H54A 0.9500 . ?
C55A H55A 0.9500 . ?
Co1B N4B 1.865(5) . ?
Co1B N2B 1.879(5) . ?
Co1B N1B 1.881(5) . ?
Co1B N3B 1.886(5) . ?
Co1B P1B 2.2316(17) . ?
P1B C38B 1.814(6) . ?
P1B C44B 1.829(6) . ?
P1B C50B 1.838(6) . ?
O1B N5B 1.230(6) . ?
O2B N5B 1.230(7) . ?
O3B N6B 1.231(7) . ?
O4B N6B 1.227(7) . ?
O5B N7B 1.282(9) . ?
O6B N7B 1.308(10) . ?
O7B N8B 1.234(6) . ?
O8B N8B 1.236(6) . ?
N1B C1B 1.371(7) . ?
N1B C4B 1.374(7) . ?
N2B C9B 1.382(7) . ?
N2B C6B 1.398(8) . ?
N3B C11B 1.389(8) . ?
N3B C14B 1.406(8) . ?
N4B C19B 1.375(7) . ?
N4B C16B 1.387(7) . ?
N5B C2B 1.449(8) . ?
N6B C3B 1.450(8) . ?
N7B C12B 1.499(11) . ?
N8B C18B 1.438(7) . ?
C1B C2B 1.387(8) . ?
C1B C19B 1.431(8) . ?
C2B C3B 1.405(8) . ?
C3B C4B 1.407(8) . ?
C4B C5B 1.434(8) . ?
C5B C6B 1.397(8) . ?
C5B C20B 1.490(9) . ?
C6B C7B 1.449(8) . ?
C7B C8B 1.350(8) . ?
C7B H7B 0.9500 . ?
C8B C9B 1.428(8) . ?
C8B H8B 0.9500 . ?
C9B C10B 1.391(8) . ?
C10B C11B 1.409(9) . ?
C10B C26B 1.496(8) . ?
C11B C12B 1.423(9) . ?
C12B C13B 1.351(10) . ?
C13B C14B 1.442(9) . ?
C13B H13B 0.9500 . ?
C14B C15B 1.386(8) . ?
C15B C16B 1.401(8) . ?
C15B C32B 1.498(8) . ?
C16B C17B 1.421(8) . ?
C17B C18B 1.388(8) . ?
C17B H17B 0.9500 . ?
C18B C19B 1.395(8) . ?
C20B C21B 1.386(9) . ?
C20B C25B 1.396(9) . ?
C21B C22B 1.387(9) . ?
C21B H21B 0.9500 . ?
C22B C23B 1.339(11) . ?
C22B H22B 0.9500 . ?
C23B C24B 1.357(11) . ?
C23B H23B 0.9500 . ?
C24B C25B 1.397(10) . ?
C24B H24B 0.9500 . ?
C25B H25B 0.9500 . ?
C26B C27B 1.357(10) . ?
C26B C31B 1.380(10) . ?
C27B C28B 1.370(11) . ?
C27B H27B 0.9500 . ?
C28B C29B 1.367(11) . ?
C28B H28B 0.9500 . ?
C29B C30B 1.263(11) . ?
C29B H29B 0.9500 . ?
C30B C31B 1.462(11) . ?
C30B H30B 0.9500 . ?
C31B H31B 0.9500 . ?
C32B C37B 1.387(8) . ?
C32B C33B 1.392(9) . ?
C33B C34B 1.386(9) . ?
C33B H33B 0.9500 . ?
C34B C35B 1.404(9) . ?
C34B H34B 0.9500 . ?
C35B C36B 1.384(9) . ?
C35B H35B 0.9500 . ?
C36B C37B 1.395(9) . ?
C36B H36B 0.9500 . ?
C37B H37B 0.9500 . ?
C38B C39B 1.402(8) . ?
C38B C43B 1.413(9) . ?
C39B C40B 1.386(8) . ?
C39B H39B 0.9500 . ?
C40B C41B 1.361(9) . ?
C40B H40B 0.9500 . ?
C41B C42B 1.406(11) . ?
C41B H41B 0.9500 . ?
C42B C43B 1.376(10) . ?
C42B H42B 0.9500 . ?
C43B H43B 0.9500 . ?
C44B C49B 1.400(9) . ?
C44B C45B 1.405(9) . ?
C45B C46B 1.381(9) . ?
C45B H45B 0.9500 . ?
C46B C47B 1.405(11) . ?
C46B H46B 0.9500 . ?
C47B C48B 1.356(10) . ?
C47B H47B 0.9500 . ?
C48B C49B 1.418(9) . ?
C48B H48B 0.9500 . ?
C49B H49B 0.9500 . ?
C50B C51B 1.397(9) . ?
C50B C55B 1.398(9) . ?
C51B C52B 1.390(9) . ?
C51B H51B 0.9500 . ?
C52B C53B 1.364(10) . ?
C52B H52B 0.9500 . ?
C53B C54B 1.390(10) . ?
C53B H53B 0.9500 . ?
C54B C55B 1.388(9) . ?
C54B H54B 0.9500 . ?
C55B H55B 0.9500 . ?
Co1C N4C 1.872(5) . ?
Co1C N2C 1.884(5) . ?
Co1C N3C 1.888(5) . ?
Co1C N1C 1.893(5) . ?
Co1C P1C 2.2385(18) . ?
P1C C50C 1.821(6) . ?
P1C C38C 1.824(6) . ?
P1C C44C 1.835(6) . ?
O1C N5C 1.226(6) . ?
O2C N5C 1.238(7) . ?
O3C N6C 1.222(7) . ?
O4C N6C 1.228(7) . ?
O5C N7C 1.241(8) . ?
O6C N7C 1.245(8) . ?
O7C N8C 1.243(8) . ?
O8C N8C 1.242(8) . ?
N1C C4C 1.364(8) . ?
N1C C1C 1.383(8) . ?
N2C C9C 1.382(8) . ?
N2C C6C 1.398(8) . ?
N3C C11C 1.394(8) . ?
N3C C14C 1.411(8) . ?
N4C C19C 1.358(7) . ?
N4C C16C 1.396(8) . ?
N5C C2C 1.461(8) . ?
N6C C3C 1.451(8) . ?
N7C C12C 1.472(9) . ?
N8C C18C 1.430(9) . ?
C1C C2C 1.394(9) . ?
C1C C19C 1.419(9) . ?
C2C C3C 1.375(8) . ?
C3C C4C 1.405(8) . ?
C4C C5C 1.429(9) . ?
C5C C6C 1.386(9) . ?
C5C C20C 1.465(9) . ?
C6C C7C 1.451(8) . ?
C7C C8C 1.343(9) . ?
C7C H7C 0.9500 . ?
C8C C9C 1.441(9) . ?
C8C H8C 0.9500 . ?
C9C C10C 1.396(9) . ?
C10C C11C 1.415(9) . ?
C10C C26C 1.490(8) . ?
C11C C12C 1.440(9) . ?
C12C C13C 1.368(9) . ?
C13C C14C 1.422(9) . ?
C13C H13C 0.9500 . ?
C14C C15C 1.415(8) . ?
C15C C16C 1.404(8) . ?
C15C C32C 1.488(8) . ?
C16C C17C 1.405(8) . ?
C17C C18C 1.382(9) . ?
C17C H17C 0.9500 . ?
C18C C19C 1.430(9) . ?
C20C C25C 1.390(9) . ?
C20C C21C 1.424(10) . ?
C21C C22C 1.374(10) . ?
C21C H21C 0.9500 . ?
C22C C23C 1.387(12) . ?
C22C H22C 0.9500 . ?
C23C C24C 1.347(13) . ?
C23C H23C 0.9500 . ?
C24C C25C 1.402(11) . ?
C24C H24C 0.9500 . ?
C25C H25C 0.9500 . ?
C26C C27C 1.354(10) . ?
C26C C31C 1.387(9) . ?
C27C C28C 1.455(11) . ?
C27C H27C 0.9500 . ?
C28C C29C 1.298(11) . ?
C28C H28C 0.9500 . ?
C29C C30C 1.384(11) . ?
C29C H29C 0.9500 . ?
C30C C31C 1.395(10) . ?
C30C H30C 0.9500 . ?
C31C H31C 0.9500 . ?
C32C C37C 1.360(8) . ?
C32C C33C 1.402(9) . ?
C33C C34C 1.375(9) . ?
C33C H33C 0.9500 . ?
C34C C35C 1.376(9) . ?
C34C H34C 0.9500 . ?
C35C C36C 1.362(10) . ?
C35C H35C 0.9500 . ?
C36C C37C 1.405(9) . ?
C36C H36C 0.9500 . ?
C37C H37C 0.9500 . ?
C38C C39C 1.388(9) . ?
C38C C43C 1.389(9) . ?
C39C C40C 1.390(9) . ?
C39C H39C 0.9500 . ?
C40C C41C 1.327(11) . ?
C40C H40C 0.9500 . ?
C41C C42C 1.394(11) . ?
C41C H41C 0.9500 . ?
C42C C43C 1.425(9) . ?
C42C H42C 0.9500 . ?
C43C H43C 0.9500 . ?
C44C C45C 1.387(9) . ?
C44C C49C 1.397(9) . ?
C45C C46C 1.362(9) . ?
C45C H45C 0.9500 . ?
C46C C47C 1.346(10) . ?
C46C H46C 0.9500 . ?
C47C C48C 1.389(10) . ?
C47C H47C 0.9500 . ?
C48C C49C 1.356(9) . ?
C48C H48C 0.9500 . ?
C49C H49C 0.9500 . ?
C50C C55C 1.388(8) . ?
C50C C51C 1.415(9) . ?
C51C C52C 1.407(9) . ?
C51C H51C 0.9500 . ?
C52C C53C 1.367(10) . ?
C52C H52C 0.9500 . ?
C53C C54C 1.373(9) . ?
C53C H53C 0.9500 . ?
C54C C55C 1.381(8) . ?
C54C H54C 0.9500 . ?
C55C H55C 0.9500 . ?
C1S Cl3 1.722(8) . ?
C1S Cl2 1.733(9) . ?
C1S Cl1 1.777(8) . ?
C1S H1S 1.0000 . ?
C2S Cl5 1.723(8) . ?
C2S Cl4 1.740(8) . ?
C2S Cl6 1.802(9) . ?
C2S H2S 1.0000 . ?
C3S Cl9 1.727(12) . ?
C3S Cl7 1.765(11) . ?
C3S Cl8 1.774(11) . ?
C3S H3S 1.0000 . ?

loop_
_geom_angle_atom_site_label_1
_geom_angle_atom_site_label_2
_geom_angle_atom_site_label_3
_geom_angle
_geom_angle_site_symmetry_1
_geom_angle_site_symmetry_3
_geom_angle_publ_flag




N1 Co1 N2 90.2(2) . . ?
N1 Co1 N4 80.7(2) . . ?
N2 Co1 N4 162.5(2) . . ?
N1 Co1 N3 161.3(2) . . ?
N2 Co1 N3 93.6(2) . . ?
N4 Co1 N3 90.7(2) . . ?
N1 Co1 P1 97.79(15) . . ?
N2 Co1 P1 97.05(15) . . ?
N4 Co1 P1 98.89(15) . . ?
N3 Co1 P1 99.95(15) . . ?
C44 P1 C50 104.3(3) . . ?
C44 P1 C38 107.7(3) . . ?
C50 P1 C38 103.1(3) . . ?
C44 P1 Co1 113.5(2) . . ?
C50 P1 Co1 115.73(19) . . ?
C38 P1 Co1 111.59(19) . . ?
C1 N1 C4 110.2(5) . . ?
C1 N1 Co1 117.4(4) . . ?
C4 N1 Co1 132.1(4) . . ?
C9 N2 C6 106.5(5) . . ?
C9 N2 Co1 126.0(4) . . ?
C6 N2 Co1 126.0(4) . . ?
C11 N3 C14 108.3(5) . . ?
C11 N3 Co1 126.1(4) . . ?
C14 N3 Co1 125.5(4) . . ?
C19 N4 C16 109.2(5) . . ?
C19 N4 Co1 117.7(4) . . ?
C16 N4 Co1 132.9(4) . . ?
O1 N5 O2 123.9(5) . . ?
O1 N5 C2 118.1(5) . . ?
O2 N5 C2 117.9(5) . . ?
O4 N6 O3 125.1(6) . . ?
O4 N6 C3 117.0(6) . . ?
O3 N6 C3 117.9(6) . . ?
O5 N7 O6 123.0(6) . . ?
O5 N7 C12 118.3(6) . . ?
O6 N7 C12 118.6(6) . . ?
O7 N8 O8 124.3(5) . . ?
O7 N8 C18 118.1(5) . . ?
O8 N8 C18 117.5(5) . . ?
N1 C1 C2 108.6(5) . . ?
N1 C1 C19 111.8(5) . . ?
C2 C1 C19 139.6(5) . . ?
C1 C2 C3 106.6(5) . . ?
C1 C2 N5 127.6(5) . . ?
C3 C2 N5 125.5(5) . . ?
C2 C3 C4 108.1(5) . . ?
C2 C3 N6 123.2(6) . . ?
C4 C3 N6 128.8(6) . . ?
N1 C4 C5 121.8(5) . . ?
N1 C4 C3 106.4(5) . . ?
C5 C4 C3 131.7(6) . . ?
C6 C5 C4 120.4(6) . . ?
C6 C5 C20 118.0(5) . . ?
C4 C5 C20 121.6(6) . . ?
C5 C6 N2 126.7(6) . . ?
C5 C6 C7 125.1(6) . . ?
N2 C6 C7 108.2(5) . . ?
C8 C7 C6 107.6(6) . . ?
C8 C7 H7 126.2 . . ?
C6 C7 H7 126.2 . . ?
C7 C8 C9 108.2(6) . . ?
C7 C8 H8 125.9 . . ?
C9 C8 H8 125.9 . . ?
N2 C9 C10 124.6(5) . . ?
N2 C9 C8 109.4(5) . . ?
C10 C9 C8 126.0(6) . . ?
C9 C10 C11 122.3(5) . . ?
C9 C10 C26 118.5(5) . . ?
C11 C10 C26 119.1(5) . . ?
N3 C11 C10 124.6(5) . . ?
N3 C11 C12 107.3(5) . . ?
C10 C11 C12 128.0(6) . . ?
C13 C12 N7 119.3(6) . . ?
C13 C12 C11 109.4(6) . . ?
N7 C12 C11 130.2(6) . . ?
C12 C13 C14 106.6(6) . . ?
C12 C13 H13 126.7 . . ?
C14 C13 H13 126.7 . . ?
C15 C14 N3 128.5(5) . . ?
C15 C14 C13 123.0(6) . . ?
N3 C14 C13 108.3(5) . . ?
C14 C15 C16 120.9(5) . . ?
C14 C15 C32 118.4(6) . . ?
C16 C15 C32 120.7(5) . . ?
N4 C16 C17 108.5(5) . . ?
N4 C16 C15 120.5(5) . . ?
C17 C16 C15 130.5(6) . . ?
C18 C17 C16 105.4(5) . . ?
C18 C17 H17 127.3 . . ?
C16 C17 H17 127.3 . . ?
C17 C18 C19 110.4(5) . . ?
C17 C18 N8 123.4(5) . . ?
C19 C18 N8 125.4(6) . . ?
N4 C19 C18 106.3(5) . . ?
N4 C19 C1 111.9(5) . . ?
C18 C19 C1 141.8(6) . . ?
C25 C20 C21 119.5(6) . . ?
C25 C20 C5 120.7(6) . . ?
C21 C20 C5 119.8(5) . . ?
C22 C21 C20 121.7(6) . . ?
C22 C21 H21 119.2 . . ?
C20 C21 H21 119.2 . . ?
C21 C22 C23 119.8(6) . . ?
C21 C22 H22 120.1 . . ?
C23 C22 H22 120.1 . . ?
C24 C23 C22 119.7(6) . . ?
C24 C23 H23 120.1 . . ?
C22 C23 H23 120.1 . . ?
C23 C24 C25 119.5(6) . . ?
C23 C24 H24 120.3 . . ?
C25 C24 H24 120.3 . . ?
C20 C25 C24 119.8(6) . . ?
C20 C25 H25 120.1 . . ?
C24 C25 H25 120.1 . . ?
C31 C26 C27 119.0(6) . . ?
C31 C26 C10 124.0(6) . . ?
C27 C26 C10 117.0(5) . . ?
C28 C27 C26 119.2(6) . . ?
C28 C27 H27 120.4 . . ?
C26 C27 H27 120.4 . . ?
C29 C28 C27 119.9(6) . . ?
C29 C28 H28 120.1 . . ?
C27 C28 H28 120.1 . . ?
C28 C29 C30 120.9(6) . . ?
C28 C29 H29 119.6 . . ?
C30 C29 H29 119.6 . . ?
C29 C30 C31 119.9(6) . . ?
C29 C30 H30 120.1 . . ?
C31 C30 H30 120.1 . . ?
C26 C31 C30 121.1(7) . . ?
C26 C31 H31 119.4 . . ?
C30 C31 H31 119.4 . . ?
C37 C32 C33 118.6(6) . . ?
C37 C32 C15 121.0(6) . . ?
C33 C32 C15 120.4(6) . . ?
C34 C33 C32 121.4(7) . . ?
C34 C33 H33 119.3 . . ?
C32 C33 H33 119.3 . . ?
C35 C34 C33 120.0(7) . . ?
C35 C34 H34 120.0 . . ?
C33 C34 H34 120.0 . . ?
C34 C35 C36 119.6(7) . . ?
C34 C35 H35 120.2 . . ?
C36 C35 H35 120.2 . . ?
C35 C36 C37 119.5(7) . . ?
C35 C36 H36 120.2 . . ?
C37 C36 H36 120.2 . . ?
C32 C37 C36 120.6(7) . . ?
C32 C37 H37 119.7 . . ?
C36 C37 H37 119.7 . . ?
C43 C38 C39 118.3(6) . . ?
C43 C38 P1 123.8(5) . . ?
C39 C38 P1 117.9(4) . . ?
C40 C39 C38 121.2(6) . . ?
C40 C39 H39 119.4 . . ?
C38 C39 H39 119.4 . . ?
C39 C40 C41 120.7(6) . . ?
C39 C40 H40 119.6 . . ?
C41 C40 H40 119.6 . . ?
C40 C41 C42 120.3(6) . . ?
C40 C41 H41 119.8 . . ?
C42 C41 H41 119.8 . . ?
C41 C42 C43 119.1(6) . . ?
C41 C42 H42 120.4 . . ?
C43 C42 H42 120.4 . . ?
C38 C43 C42 120.2(6) . . ?
C38 C43 H43 119.9 . . ?
C42 C43 H43 119.9 . . ?
C45 C44 C49 119.3(6) . . ?
C45 C44 P1 119.9(5) . . ?
C49 C44 P1 120.8(5) . . ?
C44 C45 C46 120.3(7) . . ?
C44 C45 H45 119.9 . . ?
C46 C45 H45 119.9 . . ?
C47 C46 C45 119.5(7) . . ?
C47 C46 H46 120.3 . . ?
C45 C46 H46 120.3 . . ?
C46 C47 C48 121.3(7) . . ?
C46 C47 H47 119.3 . . ?
C48 C47 H47 119.3 . . ?
C47 C48 C49 119.9(7) . . ?
C47 C48 H48 120.1 . . ?
C49 C48 H48 120.1 . . ?
C44 C49 C48 119.7(7) . . ?
C44 C49 H49 120.1 . . ?
C48 C49 H49 120.1 . . ?
C55 C50 C51 118.6(6) . . ?
C55 C50 P1 120.7(5) . . ?
C51 C50 P1 120.6(5) . . ?
C52 C51 C50 119.6(6) . . ?
C52 C51 H51 120.2 . . ?
C50 C51 H51 120.2 . . ?
C53 C52 C51 121.3(7) . . ?
C53 C52 H52 119.3 . . ?
C51 C52 H52 119.4 . . ?
C52 C53 C54 120.1(7) . . ?
C52 C53 H53 119.9 . . ?
C54 C53 H53 119.9 . . ?
C53 C54 C55 120.1(7) . . ?
C53 C54 H54 119.9 . . ?
C55 C54 H54 119.9 . . ?
C50 C55 C54 120.2(6) . . ?
C50 C55 H55 119.9 . . ?
C54 C55 H55 119.9 . . ?
N2A Co1A N4A 162.5(2) . . ?
N2A Co1A N1A 89.8(2) . . ?
N4A Co1A N1A 81.1(2) . . ?
N2A Co1A N3A 93.5(2) . . ?
N4A Co1A N3A 90.6(2) . . ?
N1A Co1A N3A 161.2(2) . . ?
N2A Co1A P1A 96.57(16) . . ?
N4A Co1A P1A 99.36(15) . . ?
N1A Co1A P1A 97.45(15) . . ?
N3A Co1A P1A 100.49(15) . . ?
C44A P1A C38A 107.3(3) . . ?
C44A P1A C50A 103.9(3) . . ?
C38A P1A C50A 103.7(3) . . ?
C44A P1A Co1A 113.8(2) . . ?
C38A P1A Co1A 111.7(2) . . ?
C50A P1A Co1A 115.6(2) . . ?
C1A N1A C4A 110.5(5) . . ?
C1A N1A Co1A 116.3(4) . . ?
C4A N1A Co1A 132.7(4) . . ?
C9A N2A C6A 105.2(5) . . ?
C9A N2A Co1A 126.0(4) . . ?
C6A N2A Co1A 127.4(4) . . ?
C11A N3A C14A 106.7(5) . . ?
C11A N3A Co1A 126.9(4) . . ?
C14A N3A Co1A 126.4(4) . . ?
C19A N4A C16A 109.2(5) . . ?
C19A N4A Co1A 117.1(4) . . ?
C16A N4A Co1A 133.5(4) . . ?
O2A N5A O1A 124.8(5) . . ?
O2A N5A C2A 117.5(5) . . ?
O1A N5A C2A 117.7(5) . . ?
O3A N6A O4A 124.7(6) . . ?
O3A N6A C3A 117.3(6) . . ?
O4A N6A C3A 118.1(6) . . ?
O5A N7A O6A 124.0(6) . . ?
O5A N7A C12A 119.0(6) . . ?
O6A N7A C12A 116.9(6) . . ?
O8A N8A O7A 123.9(5) . . ?
O8A N8A C18A 118.3(5) . . ?
O7A N8A C18A 117.8(5) . . ?
N1A C1A C2A 107.1(5) . . ?
N1A C1A C19A 112.6(5) . . ?
C2A C1A C19A 140.2(6) . . ?
C3A C2A C1A 107.6(5) . . ?
C3A C2A N5A 125.0(5) . . ?
C1A C2A N5A 127.0(5) . . ?
C2A C3A C4A 108.5(5) . . ?
C2A C3A N6A 122.7(6) . . ?
C4A C3A N6A 128.7(6) . . ?
N1A C4A C3A 106.2(5) . . ?
N1A C4A C5A 120.3(5) . . ?
C3A C4A C5A 133.5(6) . . ?
C4A C5A C6A 122.1(6) . . ?
C4A C5A C20A 120.2(6) . . ?
C6A C5A C20A 117.7(5) . . ?
N2A C6A C5A 125.1(5) . . ?
N2A C6A C7A 109.9(5) . . ?
C5A C6A C7A 125.1(6) . . ?
C8A C7A C6A 107.9(6) . . ?
C8A C7A H7A 126.0 . . ?
C6A C7A H7A 126.0 . . ?
C7A C8A C9A 106.4(6) . . ?
C7A C8A H8A 126.8 . . ?
C9A C8A H8A 126.8 . . ?
N2A C9A C10A 124.5(6) . . ?
N2A C9A C8A 110.6(5) . . ?
C10A C9A C8A 124.9(6) . . ?
C11A C10A C9A 123.4(6) . . ?
C11A C10A C26A 116.9(5) . . ?
C9A C10A C26A 119.6(6) . . ?
N3A C11A C10A 123.0(5) . . ?
N3A C11A C12A 107.4(5) . . ?
C10A C11A C12A 129.6(6) . . ?
C13A C12A C11A 110.6(5) . . ?
C13A C12A N7A 118.8(6) . . ?
C11A C12A N7A 129.9(6) . . ?
C12A C13A C14A 105.3(5) . . ?
C12A C13A H13A 127.3 . . ?
C14A C13A H13A 127.3 . . ?
C15A C14A N3A 126.4(6) . . ?
C15A C14A C13A 123.7(6) . . ?
N3A C14A C13A 109.8(5) . . ?
C14A C15A C16A 122.4(6) . . ?
C14A C15A C32A 117.7(5) . . ?
C16A C15A C32A 119.9(5) . . ?
N4A C16A C17A 108.4(5) . . ?
N4A C16A C15A 119.9(5) . . ?
C17A C16A C15A 131.3(6) . . ?
C18A C17A C16A 106.8(5) . . ?
C18A C17A H17A 126.6 . . ?
C16A C17A H17A 126.6 . . ?
C17A C18A C19A 109.6(5) . . ?
C17A C18A N8A 125.2(5) . . ?
C19A C18A N8A 124.2(5) . . ?
N4A C19A C1A 111.9(5) . . ?
N4A C19A C18A 106.0(5) . . ?
C1A C19A C18A 142.1(6) . . ?
C25A C20A C21A 119.0(6) . . ?
C25A C20A C5A 121.7(6) . . ?
C21A C20A C5A 119.3(6) . . ?
C22A C21A C20A 120.8(6) . . ?
C22A C21A H21A 119.6 . . ?
C20A C21A H21A 119.6 . . ?
C21A C22A C23A 118.6(7) . . ?
C21A C22A H22A 120.7 . . ?
C23A C22A H22A 120.7 . . ?
C24A C23A C22A 121.1(7) . . ?
C24A C23A H23A 119.4 . . ?
C22A C23A H23A 119.4 . . ?
C23A C24A C25A 120.6(7) . . ?
C23A C24A H24A 119.7 . . ?
C25A C24A H24A 119.7 . . ?
C20A C25A C24A 119.8(7) . . ?
C20A C25A H25A 120.1 . . ?
C24A C25A H25A 120.1 . . ?
C27A C26A C31A 117.4(6) . . ?
C27A C26A C10A 123.9(6) . . ?
C31A C26A C10A 118.6(5) . . ?
C28A C27A C26A 121.3(6) . . ?
C28A C27A H27A 119.4 . . ?
C26A C27A H27A 119.4 . . ?
C27A C28A C29A 119.7(6) . . ?
C27A C28A H28A 120.2 . . ?
C29A C28A H28A 120.2 . . ?
C30A C29A C28A 120.0(6) . . ?
C30A C29A H29A 120.0 . . ?
C28A C29A H29A 120.0 . . ?
C29A C30A C31A 120.3(6) . . ?
C29A C30A H30A 119.9 . . ?
C31A C30A H30A 119.9 . . ?
C30A C31A C26A 121.3(6) . . ?
C30A C31A H31A 119.4 . . ?
C26A C31A H31A 119.4 . . ?
C33A C32A C37A 119.1(6) . . ?
C33A C32A C15A 120.2(6) . . ?
C37A C32A C15A 120.7(6) . . ?
C32A C33A C34A 120.4(7) . . ?
C32A C33A H33A 119.8 . . ?
C34A C33A H33A 119.8 . . ?
C35A C34A C33A 118.9(7) . . ?
C35A C34A H34A 120.5 . . ?
C33A C34A H34A 120.5 . . ?
C36A C35A C34A 120.6(7) . . ?
C36A C35A H35A 119.7 . . ?
C34A C35A H35A 119.7 . . ?
C37A C36A C35A 120.2(7) . . ?
C37A C36A H36A 119.9 . . ?
C35A C36A H36A 119.9 . . ?
C36A C37A C32A 120.6(7) . . ?
C36A C37A H37A 119.7 . . ?
C32A C37A H37A 119.7 . . ?
C39A C38A C43A 117.7(6) . . ?
C39A C38A P1A 124.7(5) . . ?
C43A C38A P1A 117.5(5) . . ?
C40A C39A C38A 120.0(6) . . ?
C40A C39A H39A 120.0 . . ?
C38A C39A H39A 120.0 . . ?
C41A C40A C39A 122.3(7) . . ?
C41A C40A H40A 118.8 . . ?
C39A C40A H40A 118.8 . . ?
C40A C41A C42A 118.3(7) . . ?
C40A C41A H41A 120.8 . . ?
C42A C41A H41A 120.8 . . ?
C43A C42A C41A 120.7(6) . . ?
C43A C42A H42A 119.7 . . ?
C41A C42A H42A 119.7 . . ?
C42A C43A C38A 120.9(6) . . ?
C42A C43A H43A 119.6 . . ?
C38A C43A H43A 119.6 . . ?
C45A C44A C49A 118.3(6) . . ?
C45A C44A P1A 120.9(5) . . ?
C49A C44A P1A 120.8(5) . . ?
C46A C45A C44A 121.0(7) . . ?
C46A C45A H45A 119.5 . . ?
C44A C45A H45A 119.5 . . ?
C47A C46A C45A 119.9(8) . . ?
C47A C46A H46A 120.0 . . ?
C45A C46A H46A 120.0 . . ?
C46A C47A C48A 121.1(7) . . ?
C46A C47A H47A 119.5 . . ?
C48A C47A H47A 119.5 . . ?
C47A C48A C49A 119.5(7) . . ?
C47A C48A H48A 120.3 . . ?
C49A C48A H48A 120.3 . . ?
C48A C49A C44A 120.1(7) . . ?
C48A C49A H49A 119.9 . . ?
C44A C49A H49A 119.9 . . ?
C51A C50A C55A 118.1(6) . . ?
C51A C50A P1A 120.7(5) . . ?
C55A C50A P1A 121.1(5) . . ?
C52A C51A C50A 122.3(7) . . ?
C52A C51A H51A 118.8 . . ?
C50A C51A H51A 118.8 . . ?
C51A C52A C53A 118.5(7) . . ?
C51A C52A H52A 120.7 . . ?
C53A C52A H52A 120.7 . . ?
C54A C53A C52A 120.3(7) . . ?
C54A C53A H53A 119.8 . . ?
C52A C53A H53A 119.8 . . ?
C53A C54A C55A 120.0(7) . . ?
C53A C54A H54A 120.0 . . ?
C55A C54A H54A 120.0 . . ?
C54A C55A C50A 120.7(7) . . ?
C54A C55A H55A 119.7 . . ?
C50A C55A H55A 119.7 . . ?
N4B Co1B N2B 164.2(2) . . ?
N4B Co1B N1B 81.2(2) . . ?
N2B Co1B N1B 89.4(2) . . ?
N4B Co1B N3B 90.7(2) . . ?
N2B Co1B N3B 94.7(2) . . ?
N1B Co1B N3B 162.2(2) . . ?
N4B Co1B P1B 98.98(15) . . ?
N2B Co1B P1B 95.19(15) . . ?
N1B Co1B P1B 100.13(15) . . ?
N3B Co1B P1B 96.70(16) . . ?
C38B P1B C44B 106.1(3) . . ?
C38B P1B C50B 103.5(3) . . ?
C44B P1B C50B 104.7(3) . . ?
C38B P1B Co1B 111.2(2) . . ?
C44B P1B Co1B 114.4(2) . . ?
C50B P1B Co1B 115.9(2) . . ?
C1B N1B C4B 108.7(5) . . ?
C1B N1B Co1B 117.4(4) . . ?
C4B N1B Co1B 133.6(4) . . ?
C9B N2B C6B 107.0(5) . . ?
C9B N2B Co1B 125.1(4) . . ?
C6B N2B Co1B 127.3(4) . . ?
C11B N3B C14B 108.1(5) . . ?
C11B N3B Co1B 125.2(4) . . ?
C14B N3B Co1B 125.7(4) . . ?
C19B N4B C16B 108.4(5) . . ?
C19B N4B Co1B 118.3(4) . . ?
C16B N4B Co1B 133.0(4) . . ?
O1B N5B O2B 125.0(5) . . ?
O1B N5B C2B 116.1(5) . . ?
O2B N5B C2B 118.8(5) . . ?
O4B N6B O3B 126.2(6) . . ?
O4B N6B C3B 116.1(6) . . ?
O3B N6B C3B 117.6(5) . . ?
O5B N7B O6B 127.4(9) . . ?
O5B N7B C12B 120.5(9) . . ?
O6B N7B C12B 112.1(7) . . ?
O7B N8B O8B 124.6(5) . . ?
O7B N8B C18B 118.3(5) . . ?
O8B N8B C18B 117.0(5) . . ?
N1B C1B C2B 108.9(5) . . ?
N1B C1B C19B 111.7(5) . . ?
C2B C1B C19B 139.3(6) . . ?
C1B C2B C3B 107.2(5) . . ?
C1B C2B N5B 128.4(5) . . ?
C3B C2B N5B 124.0(5) . . ?
C2B C3B C4B 107.1(5) . . ?
C2B C3B N6B 122.8(5) . . ?
C4B C3B N6B 130.1(5) . . ?
N1B C4B C3B 108.0(5) . . ?
N1B C4B C5B 119.9(5) . . ?
C3B C4B C5B 132.1(6) . . ?
C6B C5B C4B 120.9(6) . . ?
C6B C5B C20B 120.8(5) . . ?
C4B C5B C20B 118.3(5) . . ?
C5B C6B N2B 126.5(5) . . ?
C5B C6B C7B 125.6(6) . . ?
N2B C6B C7B 108.0(5) . . ?
C8B C7B C6B 107.6(5) . . ?
C8B C7B H7B 126.2 . . ?
C6B C7B H7B 126.2 . . ?
C7B C8B C9B 108.2(5) . . ?
C7B C8B H8B 125.9 . . ?
C9B C8B H8B 125.9 . . ?
N2B C9B C10B 125.8(6) . . ?
N2B C9B C8B 109.1(5) . . ?
C10B C9B C8B 125.1(6) . . ?
C9B C10B C11B 123.0(6) . . ?
C9B C10B C26B 118.4(6) . . ?
C11B C10B C26B 118.6(6) . . ?
N3B C11B C10B 124.0(6) . . ?
N3B C11B C12B 106.3(6) . . ?
C10B C11B C12B 129.7(6) . . ?
C13B C12B C11B 111.5(6) . . ?
C13B C12B N7B 117.4(7) . . ?
C11B C12B N7B 127.9(7) . . ?
C12B C13B C14B 105.6(6) . . ?
C12B C13B H13B 127.2 . . ?
C14B C13B H13B 127.2 . . ?
C15B C14B N3B 127.3(6) . . ?
C15B C14B C13B 124.2(6) . . ?
N3B C14B C13B 108.4(5) . . ?
C14B C15B C16B 121.5(6) . . ?
C14B C15B C32B 120.5(5) . . ?
C16B C15B C32B 117.9(5) . . ?
N4B C16B C15B 120.7(5) . . ?
N4B C16B C17B 108.4(5) . . ?
C15B C16B C17B 130.5(6) . . ?
C18B C17B C16B 106.0(5) . . ?
C18B C17B H17B 127.0 . . ?
C16B C17B H17B 127.0 . . ?
C17B C18B C19B 109.3(5) . . ?
C17B C18B N8B 123.6(5) . . ?
C19B C18B N8B 126.4(6) . . ?
N4B C19B C18B 108.0(5) . . ?
N4B C19B C1B 111.1(5) . . ?
C18B C19B C1B 140.8(6) . . ?
C21B C20B C25B 119.0(7) . . ?
C21B C20B C5B 118.1(6) . . ?
C25B C20B C5B 122.8(6) . . ?
C20B C21B C22B 119.4(7) . . ?
C20B C21B H21B 120.3 . . ?
C22B C21B H21B 120.3 . . ?
C23B C22B C21B 121.9(8) . . ?
C23B C22B H22B 119.0 . . ?
C21B C22B H22B 119.0 . . ?
C22B C23B C24B 119.4(8) . . ?
C22B C23B H23B 120.3 . . ?
C24B C23B H23B 120.3 . . ?
C23B C24B C25B 121.5(7) . . ?
C23B C24B H24B 119.3 . . ?
C25B C24B H24B 119.3 . . ?
C20B C25B C24B 118.7(7) . . ?
C20B C25B H25B 120.7 . . ?
C24B C25B H25B 120.7 . . ?
C27B C26B C31B 119.1(7) . . ?
C27B C26B C10B 118.4(6) . . ?
C31B C26B C10B 121.5(6) . . ?
C26B C27B C28B 121.5(9) . . ?
C26B C27B H27B 119.2 . . ?
C28B C27B H27B 119.2 . . ?
C29B C28B C27B 116.9(8) . . ?
C29B C28B H28B 121.5 . . ?
C27B C28B H28B 121.5 . . ?
C30B C29B C28B 125.4(8) . . ?
C30B C29B H29B 117.3 . . ?
C28B C29B H29B 117.3 . . ?
C29B C30B C31B 117.8(8) . . ?
C29B C30B H30B 121.1 . . ?
C31B C30B H30B 121.1 . . ?
C26B C31B C30B 117.7(7) . . ?
C26B C31B H31B 121.1 . . ?
C30B C31B H31B 121.1 . . ?
C37B C32B C33B 119.2(6) . . ?
C37B C32B C15B 123.0(6) . . ?
C33B C32B C15B 117.7(5) . . ?
C34B C33B C32B 121.1(6) . . ?
C34B C33B H33B 119.4 . . ?
C32B C33B H33B 119.4 . . ?
C33B C34B C35B 119.1(6) . . ?
C33B C34B H34B 120.4 . . ?
C35B C34B H34B 120.4 . . ?
C36B C35B C34B 120.1(6) . . ?
C36B C35B H35B 120.0 . . ?
C34B C35B H35B 120.0 . . ?
C35B C36B C37B 120.0(6) . . ?
C35B C36B H36B 120.0 . . ?
C37B C36B H36B 120.0 . . ?
C32B C37B C36B 120.4(6) . . ?
C32B C37B H37B 119.8 . . ?
C36B C37B H37B 119.8 . . ?
C39B C38B C43B 117.6(6) . . ?
C39B C38B P1B 117.9(5) . . ?
C43B C38B P1B 124.5(5) . . ?
C40B C39B C38B 121.3(6) . . ?
C40B C39B H39B 119.4 . . ?
C38B C39B H39B 119.4 . . ?
C41B C40B C39B 120.8(6) . . ?
C41B C40B H40B 119.6 . . ?
C39B C40B H40B 119.6 . . ?
C40B C41B C42B 119.0(6) . . ?
C40B C41B H41B 120.5 . . ?
C42B C41B H41B 120.5 . . ?
C43B C42B C41B 121.2(7) . . ?
C43B C42B H42B 119.4 . . ?
C41B C42B H42B 119.4 . . ?
C42B C43B C38B 120.0(7) . . ?
C42B C43B H43B 120.0 . . ?
C38B C43B H43B 120.0 . . ?
C49B C44B C45B 119.0(6) . . ?
C49B C44B P1B 121.4(5) . . ?
C45B C44B P1B 119.6(5) . . ?
C46B C45B C44B 121.5(7) . . ?
C46B C45B H45B 119.3 . . ?
C44B C45B H45B 119.3 . . ?
C45B C46B C47B 118.8(7) . . ?
C45B C46B H46B 120.6 . . ?
C47B C46B H46B 120.6 . . ?
C48B C47B C46B 120.5(7) . . ?
C48B C47B H47B 119.7 . . ?
C46B C47B H47B 119.7 . . ?
C47B C48B C49B 121.4(7) . . ?
C47B C48B H48B 119.3 . . ?
C49B C48B H48B 119.3 . . ?
C44B C49B C48B 118.5(7) . . ?
C44B C49B H49B 120.7 . . ?
C48B C49B H49B 120.7 . . ?
C51B C50B C55B 118.9(6) . . ?
C51B C50B P1B 121.5(5) . . ?
C55B C50B P1B 119.4(5) . . ?
C52B C51B C50B 120.1(7) . . ?
C52B C51B H51B 119.9 . . ?
C50B C51B H51B 119.9 . . ?
C53B C52B C51B 120.1(7) . . ?
C53B C52B H52B 119.9 . . ?
C51B C52B H52B 119.9 . . ?
C52B C53B C54B 121.1(7) . . ?
C52B C53B H53B 119.4 . . ?
C54B C53B H53B 119.4 . . ?
C55B C54B C53B 119.0(7) . . ?
C55B C54B H54B 120.5 . . ?
C53B C54B H54B 120.5 . . ?
C54B C55B C50B 120.7(7) . . ?
C54B C55B H55B 119.7 . . ?
C50B C55B H55B 119.7 . . ?
N4C Co1C N2C 163.1(2) . . ?
N4C Co1C N3C 90.7(2) . . ?
N2C Co1C N3C 94.2(2) . . ?
N4C Co1C N1C 80.7(2) . . ?
N2C Co1C N1C 89.7(2) . . ?
N3C Co1C N1C 161.1(2) . . ?
N4C Co1C P1C 98.34(16) . . ?
N2C Co1C P1C 96.90(16) . . ?
N3C Co1C P1C 98.57(16) . . ?
N1C Co1C P1C 99.32(16) . . ?
C50C P1C C38C 103.4(3) . . ?
C50C P1C C44C 107.8(3) . . ?
C38C P1C C44C 102.7(3) . . ?
C50C P1C Co1C 109.8(2) . . ?
C38C P1C Co1C 117.2(2) . . ?
C44C P1C Co1C 114.9(2) . . ?
C4C N1C C1C 109.6(5) . . ?
C4C N1C Co1C 133.3(4) . . ?
C1C N1C Co1C 116.8(4) . . ?
C9C N2C C6C 107.5(5) . . ?
C9C N2C Co1C 125.6(4) . . ?
C6C N2C Co1C 125.6(4) . . ?
C11C N3C C14C 106.2(5) . . ?
C11C N3C Co1C 126.2(4) . . ?
C14C N3C Co1C 127.3(4) . . ?
C19C N4C C16C 108.9(5) . . ?
C19C N4C Co1C 118.7(4) . . ?
C16C N4C Co1C 132.4(4) . . ?
O1C N5C O2C 124.6(5) . . ?
O1C N5C C2C 117.0(5) . . ?
O2C N5C C2C 118.3(5) . . ?
O3C N6C O4C 123.4(6) . . ?
O3C N6C C3C 116.7(6) . . ?
O4C N6C C3C 119.8(6) . . ?
O5C N7C O6C 125.8(7) . . ?
O5C N7C C12C 118.6(7) . . ?
O6C N7C C12C 115.6(7) . . ?
O8C N8C O7C 124.0(6) . . ?
O8C N8C C18C 117.6(6) . . ?
O7C N8C C18C 118.3(7) . . ?
N1C C1C C2C 106.9(5) . . ?
N1C C1C C19C 111.7(5) . . ?
C2C C1C C19C 141.3(6) . . ?
C3C C2C C1C 108.2(5) . . ?
C3C C2C N5C 123.5(6) . . ?
C1C C2C N5C 127.9(6) . . ?
C2C C3C C4C 108.0(5) . . ?
C2C C3C N6C 122.4(5) . . ?
C4C C3C N6C 129.5(6) . . ?
N1C C4C C3C 107.2(5) . . ?
N1C C4C C5C 119.9(5) . . ?
C3C C4C C5C 132.9(6) . . ?
C6C C5C C4C 121.0(6) . . ?
C6C C5C C20C 120.0(6) . . ?
C4C C5C C20C 118.9(6) . . ?
C5C C6C N2C 127.7(6) . . ?
C5C C6C C7C 124.8(6) . . ?
N2C C6C C7C 107.5(5) . . ?
C8C C7C C6C 108.3(6) . . ?
C8C C7C H7C 125.8 . . ?
C6C C7C H7C 125.8 . . ?
C7C C8C C9C 107.9(6) . . ?
C7C C8C H8C 126.1 . . ?
C9C C8C H8C 126.1 . . ?
N2C C9C C10C 124.8(6) . . ?
N2C C9C C8C 108.8(6) . . ?
C10C C9C C8C 126.4(6) . . ?
C9C C10C C11C 123.3(6) . . ?
C9C C10C C26C 117.7(6) . . ?
C11C C10C C26C 118.8(6) . . ?
N3C C11C C10C 123.4(6) . . ?
N3C C11C C12C 107.6(6) . . ?
C10C C11C C12C 129.0(6) . . ?
C13C C12C C11C 109.8(6) . . ?
C13C C12C N7C 118.7(7) . . ?
C11C C12C N7C 129.8(7) . . ?
C12C C13C C14C 105.7(6) . . ?
C12C C13C H13C 127.2 . . ?
C14C C13C H13C 127.2 . . ?
N3C C14C C15C 125.2(5) . . ?
N3C C14C C13C 110.5(5) . . ?
C15C C14C C13C 124.2(6) . . ?
C16C C15C C14C 121.9(6) . . ?
C16C C15C C32C 118.2(6) . . ?
C14C C15C C32C 119.8(6) . . ?
N4C C16C C15C 121.3(5) . . ?
N4C C16C C17C 109.1(5) . . ?
C15C C16C C17C 129.1(6) . . ?
C18C C17C C16C 105.8(6) . . ?
C18C C17C H17C 127.1 . . ?
C16C C17C H17C 127.1 . . ?
C17C C18C C19C 109.4(6) . . ?
C17C C18C N8C 124.4(6) . . ?
C19C C18C N8C 125.6(6) . . ?
N4C C19C C1C 111.8(5) . . ?
N4C C19C C18C 106.8(5) . . ?
C1C C19C C18C 141.3(6) . . ?
C25C C20C C21C 117.4(7) . . ?
C25C C20C C5C 122.9(7) . . ?
C21C C20C C5C 119.6(6) . . ?
C22C C21C C20C 120.2(7) . . ?
C22C C21C H21C 119.9 . . ?
C20C C21C H21C 119.9 . . ?
C21C C22C C23C 120.8(9) . . ?
C21C C22C H22C 119.6 . . ?
C23C C22C H22C 119.6 . . ?
C24C C23C C22C 120.1(8) . . ?
C24C C23C H23C 120.0 . . ?
C22C C23C H23C 120.0 . . ?
C23C C24C C25C 120.5(8) . . ?
C23C C24C H24C 119.8 . . ?
C25C C24C H24C 119.8 . . ?
C20C C25C C24C 120.8(8) . . ?
C20C C25C H25C 119.6 . . ?
C24C C25C H25C 119.6 . . ?
C27C C26C C31C 117.6(6) . . ?
C27C C26C C10C 125.3(6) . . ?
C31C C26C C10C 117.1(6) . . ?
C26C C27C C28C 119.9(7) . . ?
C26C C27C H27C 120.1 . . ?
C28C C27C H27C 120.1 . . ?
C29C C28C C27C 120.0(7) . . ?
C29C C28C H28C 120.0 . . ?
C27C C28C H28C 120.0 . . ?
C28C C29C C30C 121.9(8) . . ?
C28C C29C H29C 119.0 . . ?
C30C C29C H29C 119.0 . . ?
C29C C30C C31C 117.7(8) . . ?
C29C C30C H30C 121.1 . . ?
C31C C30C H30C 121.1 . . ?
C26C C31C C30C 122.2(7) . . ?
C26C C31C H31C 118.9 . . ?
C30C C31C H31C 118.9 . . ?
C37C C32C C33C 119.0(6) . . ?
C37C C32C C15C 123.1(6) . . ?
C33C C32C C15C 118.0(5) . . ?
C34C C33C C32C 120.9(6) . . ?
C34C C33C H33C 119.6 . . ?
C32C C33C H33C 119.6 . . ?
C33C C34C C35C 119.2(7) . . ?
C33C C34C H34C 120.4 . . ?
C35C C34C H34C 120.4 . . ?
C36C C35C C34C 120.9(7) . . ?
C36C C35C H35C 119.6 . . ?
C34C C35C H35C 119.6 . . ?
C35C C36C C37C 119.9(7) . . ?
C35C C36C H36C 120.1 . . ?
C37C C36C H36C 120.1 . . ?
C32C C37C C36C 120.1(6) . . ?
C32C C37C H37C 119.9 . . ?
C36C C37C H37C 119.9 . . ?
C39C C38C C43C 118.7(6) . . ?
C39C C38C P1C 121.5(5) . . ?
C43C C38C P1C 118.9(5) . . ?
C38C C39C C40C 121.0(7) . . ?
C38C C39C H39C 119.5 . . ?
C40C C39C H39C 119.5 . . ?
C41C C40C C39C 120.5(7) . . ?
C41C C40C H40C 119.7 . . ?
C39C C40C H40C 119.7 . . ?
C40C C41C C42C 121.5(7) . . ?
C40C C41C H41C 119.2 . . ?
C42C C41C H41C 119.2 . . ?
C41C C42C C43C 118.5(7) . . ?
C41C C42C H42C 120.8 . . ?
C43C C42C H42C 120.8 . . ?
C38C C43C C42C 119.7(7) . . ?
C38C C43C H43C 120.1 . . ?
C42C C43C H43C 120.1 . . ?
C45C C44C C49C 117.5(6) . . ?
C45C C44C P1C 122.8(5) . . ?
C49C C44C P1C 119.7(5) . . ?
C46C C45C C44C 121.9(7) . . ?
C46C C45C H45C 119.0 . . ?
C44C C45C H45C 119.0 . . ?
C47C C46C C45C 119.8(7) . . ?
C47C C46C H46C 120.1 . . ?
C45C C46C H46C 120.1 . . ?
C46C C47C C48C 119.9(7) . . ?
C46C C47C H47C 120.0 . . ?
C48C C47C H47C 120.0 . . ?
C49C C48C C47C 120.8(7) . . ?
C49C C48C H48C 119.6 . . ?
C47C C48C H48C 119.6 . . ?
C48C C49C C44C 120.0(7) . . ?
C48C C49C H49C 120.0 . . ?
C44C C49C H49C 120.0 . . ?
C55C C50C C51C 119.5(6) . . ?
C55C C50C P1C 117.6(5) . . ?
C51C C50C P1C 122.9(5) . . ?
C52C C51C C50C 118.8(6) . . ?
C52C C51C H51C 120.6 . . ?
C50C C51C H51C 120.6 . . ?
C53C C52C C51C 120.8(6) . . ?
C53C C52C H52C 119.6 . . ?
C51C C52C H52C 119.6 . . ?
C52C C53C C54C 119.5(7) . . ?
C52C C53C H53C 120.2 . . ?
C54C C53C H53C 120.2 . . ?
C53C C54C C55C 121.9(6) . . ?
C53C C54C H54C 119.1 . . ?
C55C C54C H54C 119.1 . . ?
C54C C55C C50C 119.5(6) . . ?
C54C C55C H55C 120.3 . . ?
C50C C55C H55C 120.3 . . ?
Cl3 C1S Cl2 113.1(5) . . ?
Cl3 C1S Cl1 110.5(4) . . ?
Cl2 C1S Cl1 110.1(4) . . ?
Cl3 C1S H1S 107.6 . . ?
Cl2 C1S H1S 107.6 . . ?
Cl1 C1S H1S 107.6 . . ?
Cl5 C2S Cl4 112.1(5) . . ?
Cl5 C2S Cl6 109.6(4) . . ?
Cl4 C2S Cl6 109.5(4) . . ?
Cl5 C2S H2S 108.5 . . ?
Cl4 C2S H2S 108.5 . . ?
Cl6 C2S H2S 108.5 . . ?
Cl9 C3S Cl7 110.2(7) . . ?
Cl9 C3S Cl8 111.7(5) . . ?
Cl7 C3S Cl8 108.8(6) . . ?
Cl9 C3S H3S 108.7 . . ?
Cl7 C3S H3S 108.7 . . ?
Cl8 C3S H3S 108.7 . . ?

loop_
_geom_torsion_atom_site_label_1
_geom_torsion_atom_site_label_2
_geom_torsion_atom_site_label_3
_geom_torsion_atom_site_label_4
_geom_torsion
_geom_torsion_site_symmetry_1
_geom_torsion_site_symmetry_2
_geom_torsion_site_symmetry_3
_geom_torsion_site_symmetry_4
_geom_torsion_publ_flag

N1 Co1 P1 C44 -130.2(3) . . . . ?
N2 Co1 P1 C44 -39.0(3) . . . . ?
N4 Co1 P1 C44 148.1(3) . . . . ?
N3 Co1 P1 C44 55.9(3) . . . . ?
N1 Co1 P1 C50 109.2(3) . . . . ?
N2 Co1 P1 C50 -159.6(3) . . . . ?
N4 Co1 P1 C50 27.5(3) . . . . ?
N3 Co1 P1 C50 -64.7(3) . . . . ?
N1 Co1 P1 C38 -8.3(3) . . . . ?
N2 Co1 P1 C38 82.9(3) . . . . ?
N4 Co1 P1 C38 -90.0(3) . . . . ?
N3 Co1 P1 C38 177.8(3) . . . . ?
N2 Co1 N1 C1 171.4(4) . . . . ?
N4 Co1 N1 C1 6.3(4) . . . . ?
N3 Co1 N1 C1 69.8(8) . . . . ?
P1 Co1 N1 C1 -91.5(4) . . . . ?
N2 Co1 N1 C4 -15.3(5) . . . . ?
N4 Co1 N1 C4 179.7(5) . . . . ?
N3 Co1 N1 C4 -116.9(7) . . . . ?
P1 Co1 N1 C4 81.9(5) . . . . ?
N1 Co1 N2 C9 -178.6(5) . . . . ?
N4 Co1 N2 C9 -120.6(7) . . . . ?
N3 Co1 N2 C9 -17.0(5) . . . . ?
P1 Co1 N2 C9 83.5(5) . . . . ?
N1 Co1 N2 C6 17.3(5) . . . . ?
N4 Co1 N2 C6 75.3(8) . . . . ?
N3 Co1 N2 C6 179.0(5) . . . . ?
P1 Co1 N2 C6 -80.5(5) . . . . ?
N1 Co1 N3 C11 109.2(7) . . . . ?
N2 Co1 N3 C11 8.1(5) . . . . ?
N4 Co1 N3 C11 171.1(5) . . . . ?
P1 Co1 N3 C11 -89.7(5) . . . . ?
N1 Co1 N3 C14 -68.9(8) . . . . ?
N2 Co1 N3 C14 -170.0(5) . . . . ?
N4 Co1 N3 C14 -6.9(5) . . . . ?
P1 Co1 N3 C14 92.2(5) . . . . ?
N1 Co1 N4 C19 -2.6(4) . . . . ?
N2 Co1 N4 C19 -61.8(8) . . . . ?
N3 Co1 N4 C19 -165.9(4) . . . . ?
P1 Co1 N4 C19 93.9(4) . . . . ?
N1 Co1 N4 C16 172.5(5) . . . . ?
N2 Co1 N4 C16 113.3(8) . . . . ?
N3 Co1 N4 C16 9.2(5) . . . . ?
P1 Co1 N4 C16 -90.9(5) . . . . ?
C4 N1 C1 C2 -3.0(6) . . . . ?
Co1 N1 C1 C2 171.8(4) . . . . ?
C4 N1 C1 C19 176.6(5) . . . . ?
Co1 N1 C1 C19 -8.7(6) . . . . ?
N1 C1 C2 C3 3.4(6) . . . . ?
C19 C1 C2 C3 -176.0(7) . . . . ?
N1 C1 C2 N5 -169.9(5) . . . . ?
C19 C1 C2 N5 10.8(12) . . . . ?
O1 N5 C2 C1 -131.8(6) . . . . ?
O2 N5 C2 C1 50.6(8) . . . . ?
O1 N5 C2 C3 56.1(8) . . . . ?
O2 N5 C2 C3 -121.5(6) . . . . ?
C1 C2 C3 C4 -2.6(6) . . . . ?
N5 C2 C3 C4 170.9(5) . . . . ?
C1 C2 C3 N6 176.7(5) . . . . ?
N5 C2 C3 N6 -9.8(9) . . . . ?
O4 N6 C3 C2 46.4(8) . . . . ?
O3 N6 C3 C2 -132.3(6) . . . . ?
O4 N6 C3 C4 -134.5(7) . . . . ?
O3 N6 C3 C4 46.8(9) . . . . ?
C1 N1 C4 C5 179.7(5) . . . . ?
Co1 N1 C4 C5 6.0(8) . . . . ?
C1 N1 C4 C3 1.3(6) . . . . ?
Co1 N1 C4 C3 -172.4(4) . . . . ?
C2 C3 C4 N1 0.8(6) . . . . ?
N6 C3 C4 N1 -178.4(6) . . . . ?
C2 C3 C4 C5 -177.3(6) . . . . ?
N6 C3 C4 C5 3.5(11) . . . . ?
N1 C4 C5 C6 6.4(9) . . . . ?
C3 C4 C5 C6 -175.7(6) . . . . ?
N1 C4 C5 C20 -173.0(5) . . . . ?
C3 C4 C5 C20 4.9(10) . . . . ?
C4 C5 C6 N2 -3.0(10) . . . . ?
C20 C5 C6 N2 176.5(6) . . . . ?
C4 C5 C6 C7 179.5(6) . . . . ?
C20 C5 C6 C7 -1.1(9) . . . . ?
C9 N2 C6 C5 -178.9(6) . . . . ?
Co1 N2 C6 C5 -12.3(9) . . . . ?
C9 N2 C6 C7 -1.0(7) . . . . ?
Co1 N2 C6 C7 165.6(4) . . . . ?
C5 C6 C7 C8 177.6(6) . . . . ?
N2 C6 C7 C8 -0.3(7) . . . . ?
C6 C7 C8 C9 1.4(7) . . . . ?
C6 N2 C9 C10 -179.2(6) . . . . ?
Co1 N2 C9 C10 14.2(8) . . . . ?
C6 N2 C9 C8 1.9(7) . . . . ?
Co1 N2 C9 C8 -164.7(4) . . . . ?
C7 C8 C9 N2 -2.1(7) . . . . ?
C7 C8 C9 C10 179.0(6) . . . . ?
N2 C9 C10 C11 3.0(9) . . . . ?
C8 C9 C10 C11 -178.2(6) . . . . ?
N2 C9 C10 C26 -172.9(5) . . . . ?
C8 C9 C10 C26 5.9(9) . . . . ?
C14 N3 C11 C10 -177.0(5) . . . . ?
Co1 N3 C11 C10 4.7(8) . . . . ?
C14 N3 C11 C12 2.1(6) . . . . ?
Co1 N3 C11 C12 -176.2(4) . . . . ?
C9 C10 C11 N3 -12.8(9) . . . . ?
C26 C10 C11 N3 163.1(5) . . . . ?
C9 C10 C11 C12 168.3(6) . . . . ?
C26 C10 C11 C12 -15.9(9) . . . . ?
O5 N7 C12 C13 -41.1(9) . . . . ?
O6 N7 C12 C13 134.0(6) . . . . ?
O5 N7 C12 C11 151.8(7) . . . . ?
O6 N7 C12 C11 -33.0(10) . . . . ?
N3 C11 C12 C13 -2.2(7) . . . . ?
C10 C11 C12 C13 176.8(6) . . . . ?
N3 C11 C12 N7 165.8(6) . . . . ?
C10 C11 C12 N7 -15.1(11) . . . . ?
N7 C12 C13 C14 -168.1(5) . . . . ?
C11 C12 C13 C14 1.4(7) . . . . ?
C11 N3 C14 C15 -177.8(6) . . . . ?
Co1 N3 C14 C15 0.6(9) . . . . ?
C11 N3 C14 C13 -1.3(6) . . . . ?
Co1 N3 C14 C13 177.1(4) . . . . ?
C12 C13 C14 C15 176.6(6) . . . . ?
C12 C13 C14 N3 -0.1(7) . . . . ?
N3 C14 C15 C16 7.5(9) . . . . ?
C13 C14 C15 C16 -168.6(5) . . . . ?
N3 C14 C15 C32 -173.6(5) . . . . ?
C13 C14 C15 C32 10.3(9) . . . . ?
C19 N4 C16 C17 -1.8(6) . . . . ?
Co1 N4 C16 C17 -177.2(4) . . . . ?
C19 N4 C16 C15 171.0(5) . . . . ?
Co1 N4 C16 C15 -4.4(8) . . . . ?
C14 C15 C16 N4 -5.5(8) . . . . ?
C32 C15 C16 N4 175.6(5) . . . . ?
C14 C15 C16 C17 165.5(6) . . . . ?
C32 C15 C16 C17 -13.3(9) . . . . ?
N4 C16 C17 C18 3.1(6) . . . . ?
C15 C16 C17 C18 -168.8(6) . . . . ?
C16 C17 C18 C19 -3.2(7) . . . . ?
C16 C17 C18 N8 167.2(5) . . . . ?
O7 N8 C18 C17 15.7(8) . . . . ?
O8 N8 C18 C17 -162.7(5) . . . . ?
O7 N8 C18 C19 -175.3(5) . . . . ?
O8 N8 C18 C19 6.3(8) . . . . ?
C16 N4 C19 C18 -0.2(6) . . . . ?
Co1 N4 C19 C18 176.0(4) . . . . ?
C16 N4 C19 C1 -177.6(5) . . . . ?
Co1 N4 C19 C1 -1.4(6) . . . . ?
C17 C18 C19 N4 2.2(7) . . . . ?
N8 C18 C19 N4 -168.0(5) . . . . ?
C17 C18 C19 C1 178.3(7) . . . . ?
N8 C18 C19 C1 8.1(12) . . . . ?
N1 C1 C19 N4 6.2(7) . . . . ?
C2 C1 C19 N4 -174.4(7) . . . . ?
N1 C1 C19 C18 -169.8(7) . . . . ?
C2 C1 C19 C18 9.6(14) . . . . ?
C6 C5 C20 C25 67.0(8) . . . . ?
C4 C5 C20 C25 -113.6(7) . . . . ?
C6 C5 C20 C21 -114.5(7) . . . . ?
C4 C5 C20 C21 64.9(8) . . . . ?
C25 C20 C21 C22 -1.8(10) . . . . ?
C5 C20 C21 C22 179.6(6) . . . . ?
C20 C21 C22 C23 2.3(10) . . . . ?
C21 C22 C23 C24 -1.5(10) . . . . ?
C22 C23 C24 C25 0.4(10) . . . . ?
C21 C20 C25 C24 0.7(10) . . . . ?
C5 C20 C25 C24 179.2(6) . . . . ?
C23 C24 C25 C20 0.0(10) . . . . ?
C9 C10 C26 C31 -58.9(8) . . . . ?
C11 C10 C26 C31 125.1(7) . . . . ?
C9 C10 C26 C27 123.6(6) . . . . ?
C11 C10 C26 C27 -52.4(8) . . . . ?
C31 C26 C27 C28 1.5(9) . . . . ?
C10 C26 C27 C28 179.1(6) . . . . ?
C26 C27 C28 C29 0.5(10) . . . . ?
C27 C28 C29 C30 -1.7(10) . . . . ?
C28 C29 C30 C31 0.8(11) . . . . ?
C27 C26 C31 C30 -2.4(10) . . . . ?
C10 C26 C31 C30 -179.8(6) . . . . ?
C29 C30 C31 C26 1.3(11) . . . . ?
C14 C15 C32 C37 -124.5(7) . . . . ?
C16 C15 C32 C37 54.4(8) . . . . ?
C14 C15 C32 C33 56.0(8) . . . . ?
C16 C15 C32 C33 -125.1(7) . . . . ?
C37 C32 C33 C34 -2.5(10) . . . . ?
C15 C32 C33 C34 177.0(6) . . . . ?
C32 C33 C34 C35 -0.1(11) . . . . ?
C33 C34 C35 C36 2.6(12) . . . . ?
C34 C35 C36 C37 -2.5(11) . . . . ?
C33 C32 C37 C36 2.6(10) . . . . ?
C15 C32 C37 C36 -176.9(6) . . . . ?
C35 C36 C37 C32 -0.2(11) . . . . ?
C44 P1 C38 C43 7.9(6) . . . . ?
C50 P1 C38 C43 117.8(5) . . . . ?
Co1 P1 C38 C43 -117.3(5) . . . . ?
C44 P1 C38 C39 -170.7(5) . . . . ?
C50 P1 C38 C39 -60.8(5) . . . . ?
Co1 P1 C38 C39 64.1(5) . . . . ?
C43 C38 C39 C40 2.5(9) . . . . ?
P1 C38 C39 C40 -178.9(5) . . . . ?
C38 C39 C40 C41 -0.2(9) . . . . ?
C39 C40 C41 C42 -2.5(9) . . . . ?
C40 C41 C42 C43 2.9(9) . . . . ?
C39 C38 C43 C42 -2.0(9) . . . . ?
P1 C38 C43 C42 179.5(5) . . . . ?
C41 C42 C43 C38 -0.6(9) . . . . ?
C50 P1 C44 C45 -165.4(5) . . . . ?
C38 P1 C44 C45 -56.3(6) . . . . ?
Co1 P1 C44 C45 67.8(5) . . . . ?
C50 P1 C44 C49 14.0(6) . . . . ?
C38 P1 C44 C49 123.2(5) . . . . ?
Co1 P1 C44 C49 -112.8(5) . . . . ?
C49 C44 C45 C46 -1.5(9) . . . . ?
P1 C44 C45 C46 177.9(5) . . . . ?
C44 C45 C46 C47 1.8(10) . . . . ?
C45 C46 C47 C48 -0.2(11) . . . . ?
C46 C47 C48 C49 -1.6(11) . . . . ?
C45 C44 C49 C48 -0.3(9) . . . . ?
P1 C44 C49 C48 -179.8(5) . . . . ?
C47 C48 C49 C44 1.9(10) . . . . ?
C44 P1 C50 C55 -74.1(5) . . . . ?
C38 P1 C50 C55 173.5(5) . . . . ?
Co1 P1 C50 C55 51.4(6) . . . . ?
C44 P1 C50 C51 101.7(5) . . . . ?
C38 P1 C50 C51 -10.7(5) . . . . ?
Co1 P1 C50 C51 -132.9(4) . . . . ?
C55 C50 C51 C52 -0.6(9) . . . . ?
P1 C50 C51 C52 -176.4(5) . . . . ?
C50 C51 C52 C53 0.6(10) . . . . ?
C51 C52 C53 C54 0.4(11) . . . . ?
C52 C53 C54 C55 -1.4(11) . . . . ?
C51 C50 C55 C54 -0.4(9) . . . . ?
P1 C50 C55 C54 175.4(5) . . . . ?
C53 C54 C55 C50 1.4(10) . . . . ?
N2A Co1A P1A C44A -39.0(3) . . . . ?
N4A Co1A P1A C44A 148.2(3) . . . . ?
N1A Co1A P1A C44A -129.6(3) . . . . ?
N3A Co1A P1A C44A 55.9(3) . . . . ?
N2A Co1A P1A C38A 82.7(3) . . . . ?
N4A Co1A P1A C38A -90.1(3) . . . . ?
N1A Co1A P1A C38A -8.0(3) . . . . ?
N3A Co1A P1A C38A 177.5(3) . . . . ?
N2A Co1A P1A C50A -159.0(3) . . . . ?
N4A Co1A P1A C50A 28.2(3) . . . . ?
N1A Co1A P1A C50A 110.3(3) . . . . ?
N3A Co1A P1A C50A -64.2(3) . . . . ?
N2A Co1A N1A C1A 172.8(4) . . . . ?
N4A Co1A N1A C1A 7.8(4) . . . . ?
N3A Co1A N1A C1A 72.4(8) . . . . ?
P1A Co1A N1A C1A -90.6(4) . . . . ?
N2A Co1A N1A C4A -16.0(5) . . . . ?
N4A Co1A N1A C4A 179.0(5) . . . . ?
N3A Co1A N1A C4A -116.4(7) . . . . ?
P1A Co1A N1A C4A 80.6(5) . . . . ?
N4A Co1A N2A C9A -120.4(7) . . . . ?
N1A Co1A N2A C9A -178.6(5) . . . . ?
N3A Co1A N2A C9A -17.1(5) . . . . ?
P1A Co1A N2A C9A 83.9(5) . . . . ?
N4A Co1A N2A C6A 75.0(9) . . . . ?
N1A Co1A N2A C6A 16.7(5) . . . . ?
N3A Co1A N2A C6A 178.2(5) . . . . ?
P1A Co1A N2A C6A -80.8(5) . . . . ?
N2A Co1A N3A C11A 9.3(5) . . . . ?
N4A Co1A N3A C11A 172.3(5) . . . . ?
N1A Co1A N3A C11A 109.1(7) . . . . ?
P1A Co1A N3A C11A -88.1(5) . . . . ?
N2A Co1A N3A C14A -170.8(5) . . . . ?
N4A Co1A N3A C14A -7.8(5) . . . . ?
N1A Co1A N3A C14A -71.0(8) . . . . ?
P1A Co1A N3A C14A 91.8(5) . . . . ?
N2A Co1A N4A C19A -61.9(9) . . . . ?
N1A Co1A N4A C19A -2.5(4) . . . . ?
N3A Co1A N4A C19A -165.6(4) . . . . ?
P1A Co1A N4A C19A 93.7(4) . . . . ?
N2A Co1A N4A C16A 112.4(8) . . . . ?
N1A Co1A N4A C16A 171.8(5) . . . . ?
N3A Co1A N4A C16A 8.7(5) . . . . ?
P1A Co1A N4A C16A -92.1(5) . . . . ?
C4A N1A C1A C2A -1.1(6) . . . . ?
Co1A N1A C1A C2A 172.0(4) . . . . ?
C4A N1A C1A C19A 175.4(5) . . . . ?
Co1A N1A C1A C19A -11.5(6) . . . . ?
N1A C1A C2A C3A 1.9(6) . . . . ?
C19A C1A C2A C3A -173.1(7) . . . . ?
N1A C1A C2A N5A -171.2(5) . . . . ?
C19A C1A C2A N5A 13.8(12) . . . . ?
O2A N5A C2A C3A -123.5(7) . . . . ?
O1A N5A C2A C3A 56.8(8) . . . . ?
O2A N5A C2A C1A 48.4(9) . . . . ?
O1A N5A C2A C1A -131.3(7) . . . . ?
C1A C2A C3A C4A -1.9(7) . . . . ?
N5A C2A C3A C4A 171.3(5) . . . . ?
C1A C2A C3A N6A 177.3(5) . . . . ?
N5A C2A C3A N6A -9.4(9) . . . . ?
O3A N6A C3A C2A 47.7(9) . . . . ?
O4A N6A C3A C2A -132.1(6) . . . . ?
O3A N6A C3A C4A -133.1(7) . . . . ?
O4A N6A C3A C4A 47.0(9) . . . . ?
C1A N1A C4A C3A -0.1(6) . . . . ?
Co1A N1A C4A C3A -171.7(4) . . . . ?
C1A N1A C4A C5A 179.6(5) . . . . ?
Co1A N1A C4A C5A 8.0(9) . . . . ?
C2A C3A C4A N1A 1.3(7) . . . . ?
N6A C3A C4A N1A -178.0(6) . . . . ?
C2A C3A C4A C5A -178.4(6) . . . . ?
N6A C3A C4A C5A 2.4(11) . . . . ?
N1A C4A C5A C6A 4.6(9) . . . . ?
C3A C4A C5A C6A -175.8(6) . . . . ?
N1A C4A C5A C20A -175.2(5) . . . . ?
C3A C4A C5A C20A 4.4(10) . . . . ?
C9A N2A C6A C5A -178.7(6) . . . . ?
Co1A N2A C6A C5A -11.5(9) . . . . ?
C9A N2A C6A C7A -1.0(7) . . . . ?
Co1A N2A C6A C7A 166.2(4) . . . . ?
C4A C5A C6A N2A -2.7(10) . . . . ?
C20A C5A C6A N2A 177.1(6) . . . . ?
C4A C5A C6A C7A 180.0(6) . . . . ?
C20A C5A C6A C7A -0.2(9) . . . . ?
N2A C6A C7A C8A 0.8(8) . . . . ?
C5A C6A C7A C8A 178.5(6) . . . . ?
C6A C7A C8A C9A -0.3(7) . . . . ?
C6A N2A C9A C10A -178.3(6) . . . . ?
Co1A N2A C9A C10A 14.3(9) . . . . ?
C6A N2A C9A C8A 0.8(7) . . . . ?
Co1A N2A C9A C8A -166.6(4) . . . . ?
C7A C8A C9A N2A -0.3(7) . . . . ?
C7A C8A C9A C10A 178.8(6) . . . . ?
N2A C9A C10A C11A 2.3(10) . . . . ?
C8A C9A C10A C11A -176.7(6) . . . . ?
N2A C9A C10A C26A -173.6(6) . . . . ?
C8A C9A C10A C26A 7.4(9) . . . . ?
C14A N3A C11A C10A -177.6(5) . . . . ?
Co1A N3A C11A C10A 2.2(8) . . . . ?
C14A N3A C11A C12A 3.4(6) . . . . ?
Co1A N3A C11A C12A -176.7(4) . . . . ?
C9A C10A C11A N3A -10.7(9) . . . . ?
C26A C10A C11A N3A 165.3(5) . . . . ?
C9A C10A C11A C12A 168.1(6) . . . . ?
C26A C10A C11A C12A -16.0(9) . . . . ?
N3A C11A C12A C13A -4.3(7) . . . . ?
C10A C11A C12A C13A 176.8(6) . . . . ?
N3A C11A C12A N7A 165.9(6) . . . . ?
C10A C11A C12A N7A -12.9(11) . . . . ?
O5A N7A C12A C13A 136.0(6) . . . . ?
O6A N7A C12A C13A -41.3(8) . . . . ?
O5A N7A C12A C11A -33.6(9) . . . . ?
O6A N7A C12A C11A 149.1(6) . . . . ?
C11A C12A C13A C14A 3.3(7) . . . . ?
N7A C12A C13A C14A -168.2(5) . . . . ?
C11A N3A C14A C15A -177.2(6) . . . . ?
Co1A N3A C14A C15A 2.9(8) . . . . ?
C11A N3A C14A C13A -1.4(6) . . . . ?
Co1A N3A C14A C13A 178.7(4) . . . . ?
C12A C13A C14A C15A 174.7(6) . . . . ?
C12A C13A C14A N3A -1.2(7) . . . . ?
N3A C14A C15A C16A 5.4(9) . . . . ?
C13A C14A C15A C16A -169.8(5) . . . . ?
N3A C14A C15A C32A -174.6(5) . . . . ?
C13A C14A C15A C32A 10.2(9) . . . . ?
C19A N4A C16A C17A -1.9(6) . . . . ?
Co1A N4A C16A C17A -176.4(4) . . . . ?
C19A N4A C16A C15A 171.0(5) . . . . ?
Co1A N4A C16A C15A -3.6(8) . . . . ?
C14A C15A C16A N4A -5.2(9) . . . . ?
C32A C15A C16A N4A 174.8(5) . . . . ?
C14A C15A C16A C17A 165.7(6) . . . . ?
C32A C15A C16A C17A -14.2(10) . . . . ?
N4A C16A C17A C18A 2.7(7) . . . . ?
C15A C16A C17A C18A -169.0(6) . . . . ?
C16A C17A C18A C19A -2.6(7) . . . . ?
C16A C17A C18A N8A 166.6(5) . . . . ?
O8A N8A C18A C17A -161.9(5) . . . . ?
O7A N8A C18A C17A 15.5(8) . . . . ?
O8A N8A C18A C19A 5.7(8) . . . . ?
O7A N8A C18A C19A -176.9(5) . . . . ?
C16A N4A C19A C1A -178.6(5) . . . . ?
Co1A N4A C19A C1A -3.0(6) . . . . ?
C16A N4A C19A C18A 0.3(6) . . . . ?
Co1A N4A C19A C18A 175.9(4) . . . . ?
N1A C1A C19A N4A 9.0(7) . . . . ?
C2A C1A C19A N4A -176.1(7) . . . . ?
N1A C1A C19A C18A -169.2(7) . . . . ?
C2A C1A C19A C18A 5.7(14) . . . . ?
C17A C18A C19A N4A 1.4(6) . . . . ?
N8A C18A C19A N4A -167.8(5) . . . . ?
C17A C18A C19A C1A 179.7(7) . . . . ?
N8A C18A C19A C1A 10.5(12) . . . . ?
C4A C5A C20A C25A -114.1(7) . . . . ?
C6A C5A C20A C25A 66.1(8) . . . . ?
C4A C5A C20A C21A 67.8(8) . . . . ?
C6A C5A C20A C21A -112.0(7) . . . . ?
C25A C20A C21A C22A 3.7(10) . . . . ?
C5A C20A C21A C22A -178.1(6) . . . . ?
C20A C21A C22A C23A -2.5(10) . . . . ?
C21A C22A C23A C24A 0.2(11) . . . . ?
C22A C23A C24A C25A 0.9(12) . . . . ?
C21A C20A C25A C24A -2.6(10) . . . . ?
C5A C20A C25A C24A 179.2(6) . . . . ?
C23A C24A C25A C20A 0.4(11) . . . . ?
C11A C10A C26A C27A 126.5(7) . . . . ?
C9A C10A C26A C27A -57.3(9) . . . . ?
C11A C10A C26A C31A -56.0(8) . . . . ?
C9A C10A C26A C31A 120.2(6) . . . . ?
C31A C26A C27A C28A 1.2(10) . . . . ?
C10A C26A C27A C28A 178.7(6) . . . . ?
C26A C27A C28A C29A -0.7(11) . . . . ?
C27A C28A C29A C30A 0.9(10) . . . . ?
C28A C29A C30A C31A -1.7(10) . . . . ?
C29A C30A C31A C26A 2.2(10) . . . . ?
C27A C26A C31A C30A -1.9(9) . . . . ?
C10A C26A C31A C30A -179.6(6) . . . . ?
C14A C15A C32A C33A 55.5(8) . . . . ?
C16A C15A C32A C33A -124.5(7) . . . . ?
C14A C15A C32A C37A -124.1(6) . . . . ?
C16A C15A C32A C37A 55.9(8) . . . . ?
C37A C32A C33A C34A -5.2(10) . . . . ?
C15A C32A C33A C34A 175.3(6) . . . . ?
C32A C33A C34A C35A 2.1(11) . . . . ?
C33A C34A C35A C36A 2.4(11) . . . . ?
C34A C35A C36A C37A -3.8(12) . . . . ?
C35A C36A C37A C32A 0.7(11) . . . . ?
C33A C32A C37A C36A 3.8(10) . . . . ?
C15A C32A C37A C36A -176.6(6) . . . . ?
C44A P1A C38A C39A 8.1(6) . . . . ?
C50A P1A C38A C39A 117.7(5) . . . . ?
Co1A P1A C38A C39A -117.2(5) . . . . ?
C44A P1A C38A C43A -170.1(5) . . . . ?
C50A P1A C38A C43A -60.5(5) . . . . ?
Co1A P1A C38A C43A 64.6(5) . . . . ?
C43A C38A C39A C40A -3.0(9) . . . . ?
P1A C38A C39A C40A 178.8(5) . . . . ?
C38A C39A C40A C41A 0.8(10) . . . . ?
C39A C40A C41A C42A 2.3(10) . . . . ?
C40A C41A C42A C43A -3.1(9) . . . . ?
C41A C42A C43A C38A 0.9(9) . . . . ?
C39A C38A C43A C42A 2.2(9) . . . . ?
P1A C38A C43A C42A -179.5(4) . . . . ?
C38A P1A C44A C45A -57.9(6) . . . . ?
C50A P1A C44A C45A -167.4(5) . . . . ?
Co1A P1A C44A C45A 66.1(6) . . . . ?
C38A P1A C44A C49A 121.4(5) . . . . ?
C50A P1A C44A C49A 11.9(6) . . . . ?
Co1A P1A C44A C49A -114.6(5) . . . . ?
C49A C44A C45A C46A -0.3(10) . . . . ?
P1A C44A C45A C46A 179.0(5) . . . . ?
C44A C45A C46A C47A -0.1(11) . . . . ?
C45A C46A C47A C48A 1.2(11) . . . . ?
C46A C47A C48A C49A -1.9(11) . . . . ?
C47A C48A C49A C44A 1.5(10) . . . . ?
C45A C44A C49A C48A -0.4(9) . . . . ?
P1A C44A C49A C48A -179.7(5) . . . . ?
C44A P1A C50A C51A -74.8(6) . . . . ?
C38A P1A C50A C51A 173.1(5) . . . . ?
Co1A P1A C50A C51A 50.5(6) . . . . ?
C44A P1A C50A C55A 102.3(5) . . . . ?
C38A P1A C50A C55A -9.8(6) . . . . ?
Co1A P1A C50A C55A -132.4(5) . . . . ?
C55A C50A C51A C52A -0.6(10) . . . . ?
P1A C50A C51A C52A 176.7(5) . . . . ?
C50A C51A C52A C53A 1.0(11) . . . . ?
C51A C52A C53A C54A -1.9(11) . . . . ?
C52A C53A C54A C55A 2.3(10) . . . . ?
C53A C54A C55A C50A -1.8(10) . . . . ?
C51A C50A C55A C54A 1.0(9) . . . . ?
P1A C50A C55A C54A -176.3(5) . . . . ?
N4B Co1B P1B C38B 83.8(3) . . . . ?
N2B Co1B P1B C38B -89.1(3) . . . . ?
N1B Co1B P1B C38B 1.3(3) . . . . ?
N3B Co1B P1B C38B 175.6(3) . . . . ?
N4B Co1B P1B C44B -156.0(3) . . . . ?
N2B Co1B P1B C44B 31.1(3) . . . . ?
N1B Co1B P1B C44B 121.5(3) . . . . ?
N3B Co1B P1B C44B -64.2(3) . . . . ?
N4B Co1B P1B C50B -34.0(3) . . . . ?
N2B Co1B P1B C50B 153.1(3) . . . . ?
N1B Co1B P1B C50B -116.5(3) . . . . ?
N3B Co1B P1B C50B 57.8(3) . . . . ?
N4B Co1B N1B C1B -4.2(4) . . . . ?
N2B Co1B N1B C1B -171.4(4) . . . . ?
N3B Co1B N1B C1B -67.6(8) . . . . ?
P1B Co1B N1B C1B 93.4(4) . . . . ?
N4B Co1B N1B C4B -177.1(6) . . . . ?
N2B Co1B N1B C4B 15.7(5) . . . . ?
N3B Co1B N1B C4B 119.4(8) . . . . ?
P1B Co1B N1B C4B -79.5(5) . . . . ?
N4B Co1B N2B C9B 121.9(8) . . . . ?
N1B Co1B N2B C9B 175.2(5) . . . . ?
N3B Co1B N2B C9B 12.5(5) . . . . ?
P1B Co1B N2B C9B -84.7(5) . . . . ?
N4B Co1B N2B C6B -67.6(10) . . . . ?
N1B Co1B N2B C6B -14.3(5) . . . . ?
N3B Co1B N2B C6B -177.0(5) . . . . ?
P1B Co1B N2B C6B 85.8(5) . . . . ?
N4B Co1B N3B C11B 178.4(5) . . . . ?
N2B Co1B N3B C11B -16.5(5) . . . . ?
N1B Co1B N3B C11B -119.5(7) . . . . ?
P1B Co1B N3B C11B 79.3(5) . . . . ?
N4B Co1B N3B C14B 10.5(5) . . . . ?
N2B Co1B N3B C14B 175.6(5) . . . . ?
N1B Co1B N3B C14B 72.7(9) . . . . ?
P1B Co1B N3B C14B -88.6(5) . . . . ?
N2B Co1B N4B C19B 54.8(9) . . . . ?
N1B Co1B N4B C19B 0.6(4) . . . . ?
N3B Co1B N4B C19B 164.7(4) . . . . ?
P1B Co1B N4B C19B -98.4(4) . . . . ?
N2B Co1B N4B C16B -117.6(8) . . . . ?
N1B Co1B N4B C16B -171.8(5) . . . . ?
N3B Co1B N4B C16B -7.7(5) . . . . ?
P1B Co1B N4B C16B 89.2(5) . . . . ?
C4B N1B C1B C2B 2.5(6) . . . . ?
Co1B N1B C1B C2B -172.1(4) . . . . ?
C4B N1B C1B C19B -178.7(5) . . . . ?
Co1B N1B C1B C19B 6.7(6) . . . . ?
N1B C1B C2B C3B -3.6(7) . . . . ?
C19B C1B C2B C3B 178.1(7) . . . . ?
N1B C1B C2B N5B 169.0(5) . . . . ?
C19B C1B C2B N5B -9.3(12) . . . . ?
O1B N5B C2B C1B -49.1(8) . . . . ?
O2B N5B C2B C1B 134.2(7) . . . . ?
O1B N5B C2B C3B 122.4(6) . . . . ?
O2B N5B C2B C3B -54.3(8) . . . . ?
C1B C2B C3B C4B 3.3(7) . . . . ?
N5B C2B C3B C4B -169.7(5) . . . . ?
C1B C2B C3B N6B -174.1(5) . . . . ?
N5B C2B C3B N6B 12.9(9) . . . . ?
O4B N6B C3B C2B -49.7(8) . . . . ?
O3B N6B C3B C2B 129.4(6) . . . . ?
O4B N6B C3B C4B 133.5(7) . . . . ?
O3B N6B C3B C4B -47.3(9) . . . . ?
C1B N1B C4B C3B -0.4(7) . . . . ?
Co1B N1B C4B C3B 173.0(4) . . . . ?
C1B N1B C4B C5B 178.9(5) . . . . ?
Co1B N1B C4B C5B -7.7(9) . . . . ?
C2B C3B C4B N1B -1.8(7) . . . . ?
N6B C3B C4B N1B 175.3(6) . . . . ?
C2B C3B C4B C5B 179.0(6) . . . . ?
N6B C3B C4B C5B -3.9(12) . . . . ?
N1B C4B C5B C6B -6.8(9) . . . . ?
C3B C4B C5B C6B 172.3(6) . . . . ?
N1B C4B C5B C20B 171.7(5) . . . . ?
C3B C4B C5B C20B -9.2(10) . . . . ?
C4B C5B C6B N2B 7.1(9) . . . . ?
C20B C5B C6B N2B -171.4(6) . . . . ?
C4B C5B C6B C7B -173.3(6) . . . . ?
C20B C5B C6B C7B 8.3(9) . . . . ?
C9B N2B C6B C5B 178.6(6) . . . . ?
Co1B N2B C6B C5B 6.7(9) . . . . ?
C9B N2B C6B C7B -1.1(6) . . . . ?
Co1B N2B C6B C7B -173.0(4) . . . . ?
C5B C6B C7B C8B 179.3(6) . . . . ?
N2B C6B C7B C8B -1.0(7) . . . . ?
C6B C7B C8B C9B 2.6(7) . . . . ?
C6B N2B C9B C10B -178.5(6) . . . . ?
Co1B N2B C9B C10B -6.4(8) . . . . ?
C6B N2B C9B C8B 2.7(6) . . . . ?
Co1B N2B C9B C8B 174.8(4) . . . . ?
C7B C8B C9B N2B -3.4(7) . . . . ?
C7B C8B C9B C10B 177.8(6) . . . . ?
N2B C9B C10B C11B -0.5(10) . . . . ?
C8B C9B C10B C11B 178.1(6) . . . . ?
N2B C9B C10B C26B 178.0(5) . . . . ?
C8B C9B C10B C26B -3.5(9) . . . . ?
C14B N3B C11B C10B -175.5(6) . . . . ?
Co1B N3B C11B C10B 14.9(9) . . . . ?
C14B N3B C11B C12B 1.7(8) . . . . ?
Co1B N3B C11B C12B -168.0(5) . . . . ?
C9B C10B C11B N3B -3.9(10) . . . . ?
C26B C10B C11B N3B 177.6(6) . . . . ?
C9B C10B C11B C12B 179.6(8) . . . . ?
C26B C10B C11B C12B 1.1(12) . . . . ?
N3B C11B C12B C13B -2.3(10) . . . . ?
C10B C11B C12B C13B 174.7(7) . . . . ?
N3B C11B C12B N7B 157.1(9) . . . . ?
C10B C11B C12B N7B -26.0(15) . . . . ?
O5B N7B C12B C13B 131.9(10) . . . . ?
O6B N7B C12B C13B -49.6(12) . . . . ?
O5B N7B C12B C11B -26.4(15) . . . . ?
O6B N7B C12B C11B 152.1(9) . . . . ?
C11B C12B C13B C14B 1.8(10) . . . . ?
N7B C12B C13B C14B -159.9(8) . . . . ?
C11B N3B C14B C15B -177.4(6) . . . . ?
Co1B N3B C14B C15B -7.8(9) . . . . ?
C11B N3B C14B C13B -0.7(7) . . . . ?
Co1B N3B C14B C13B 168.9(4) . . . . ?
C12B C13B C14B C15B 176.1(7) . . . . ?
C12B C13B C14B N3B -0.7(8) . . . . ?
N3B C14B C15B C16B -2.7(10) . . . . ?
C13B C14B C15B C16B -179.0(6) . . . . ?
N3B C14B C15B C32B 175.2(6) . . . . ?
C13B C14B C15B C32B -1.0(9) . . . . ?
C19B N4B C16B C15B -172.3(5) . . . . ?
Co1B N4B C16B C15B 0.6(9) . . . . ?
C19B N4B C16B C17B 1.1(6) . . . . ?
Co1B N4B C16B C17B 174.1(4) . . . . ?
C14B C15B C16B N4B 6.4(9) . . . . ?
C32B C15B C16B N4B -171.7(5) . . . . ?
C14B C15B C16B C17B -165.5(6) . . . . ?
C32B C15B C16B C17B 16.5(9) . . . . ?
N4B C16B C17B C18B -1.7(6) . . . . ?
C15B C16B C17B C18B 171.0(6) . . . . ?
C16B C17B C18B C19B 1.6(7) . . . . ?
C16B C17B C18B N8B -169.6(5) . . . . ?
O7B N8B C18B C17B -17.9(9) . . . . ?
O8B N8B C18B C17B 159.4(6) . . . . ?
O7B N8B C18B C19B 172.5(6) . . . . ?
O8B N8B C18B C19B -10.2(9) . . . . ?
C16B N4B C19B C18B -0.2(6) . . . . ?
Co1B N4B C19B C18B -174.3(4) . . . . ?
C16B N4B C19B C1B 177.0(5) . . . . ?
Co1B N4B C19B C1B 2.8(6) . . . . ?
C17B C18B C19B N4B -0.9(7) . . . . ?
N8B C18B C19B N4B 169.9(5) . . . . ?
C17B C18B C19B C1B -176.7(7) . . . . ?
N8B C18B C19B C1B -5.9(12) . . . . ?
N1B C1B C19B N4B -5.9(7) . . . . ?
C2B C1B C19B N4B 172.5(7) . . . . ?
N1B C1B C19B C18B 169.9(7) . . . . ?
C2B C1B C19B C18B -11.8(14) . . . . ?
C6B C5B C20B C21B 117.6(7) . . . . ?
C4B C5B C20B C21B -60.9(8) . . . . ?
C6B C5B C20B C25B -59.7(9) . . . . ?
C4B C5B C20B C25B 121.8(7) . . . . ?
C25B C20B C21B C22B -3.1(9) . . . . ?
C5B C20B C21B C22B 179.5(6) . . . . ?
C20B C21B C22B C23B 1.3(11) . . . . ?
C21B C22B C23B C24B 2.3(12) . . . . ?
C22B C23B C24B C25B -4.0(12) . . . . ?
C21B C20B C25B C24B 1.4(10) . . . . ?
C5B C20B C25B C24B 178.7(6) . . . . ?
C23B C24B C25B C20B 2.1(11) . . . . ?
C9B C10B C26B C27B 113.2(8) . . . . ?
C11B C10B C26B C27B -68.2(9) . . . . ?
C9B C10B C26B C31B -55.3(9) . . . . ?
C11B C10B C26B C31B 123.2(8) . . . . ?
C31B C26B C27B C28B -9.5(13) . . . . ?
C10B C26B C27B C28B -178.3(8) . . . . ?
C26B C27B C28B C29B 8.2(14) . . . . ?
C27B C28B C29B C30B -9.2(16) . . . . ?
C28B C29B C30B C31B 10.6(16) . . . . ?
C27B C26B C31B C30B 10.4(12) . . . . ?
C10B C26B C31B C30B 178.9(7) . . . . ?
C29B C30B C31B C26B -10.9(13) . . . . ?
C14B C15B C32B C37B 55.1(8) . . . . ?
C16B C15B C32B C37B -126.9(6) . . . . ?
C14B C15B C32B C33B -123.4(6) . . . . ?
C16B C15B C32B C33B 54.7(8) . . . . ?
C37B C32B C33B C34B -1.8(9) . . . . ?
C15B C32B C33B C34B 176.7(6) . . . . ?
C32B C33B C34B C35B 1.3(10) . . . . ?
C33B C34B C35B C36B 0.9(10) . . . . ?
C34B C35B C36B C37B -2.6(10) . . . . ?
C33B C32B C37B C36B 0.1(9) . . . . ?
C15B C32B C37B C36B -178.4(6) . . . . ?
C35B C36B C37B C32B 2.1(10) . . . . ?
C44B P1B C38B C39B 175.9(5) . . . . ?
C50B P1B C38B C39B 66.0(5) . . . . ?
Co1B P1B C38B C39B -59.1(5) . . . . ?
C44B P1B C38B C43B -5.5(6) . . . . ?
C50B P1B C38B C43B -115.4(6) . . . . ?
Co1B P1B C38B C43B 119.5(5) . . . . ?
C43B C38B C39B C40B -1.7(9) . . . . ?
P1B C38B C39B C40B 177.1(5) . . . . ?
C38B C39B C40B C41B -1.5(9) . . . . ?
C39B C40B C41B C42B 2.3(10) . . . . ?
C40B C41B C42B C43B 0.0(11) . . . . ?
C41B C42B C43B C38B -3.2(12) . . . . ?
C39B C38B C43B C42B 4.0(10) . . . . ?
P1B C38B C43B C42B -174.7(6) . . . . ?
C38B P1B C44B C49B -125.3(5) . . . . ?
C50B P1B C44B C49B -16.3(6) . . . . ?
Co1B P1B C44B C49B 111.7(5) . . . . ?
C38B P1B C44B C45B 55.0(6) . . . . ?
C50B P1B C44B C45B 164.0(5) . . . . ?
Co1B P1B C44B C45B -68.0(6) . . . . ?
C49B C44B C45B C46B 4.4(10) . . . . ?
P1B C44B C45B C46B -175.9(5) . . . . ?
C44B C45B C46B C47B -1.8(11) . . . . ?
C45B C46B C47B C48B -2.2(11) . . . . ?
C46B C47B C48B C49B 3.6(11) . . . . ?
C45B C44B C49B C48B -3.0(9) . . . . ?
P1B C44B C49B C48B 177.3(5) . . . . ?
C47B C48B C49B C44B -0.9(10) . . . . ?
C38B P1B C50B C51B 2.5(6) . . . . ?
C44B P1B C50B C51B -108.4(5) . . . . ?
Co1B P1B C50B C51B 124.5(5) . . . . ?
C38B P1B C50B C55B 176.5(5) . . . . ?
C44B P1B C50B C55B 65.6(6) . . . . ?
Co1B P1B C50B C55B -61.4(5) . . . . ?
C55B C50B C51B C52B -1.0(10) . . . . ?
P1B C50B C51B C52B 173.1(5) . . . . ?
C50B C51B C52B C53B -1.0(11) . . . . ?
C51B C52B C53B C54B 2.7(12) . . . . ?
C52B C53B C54B C55B -2.4(11) . . . . ?
C53B C54B C55B C50B 0.3(10) . . . . ?
C51B C50B C55B C54B 1.3(10) . . . . ?
P1B C50B C55B C54B -172.9(5) . . . . ?
N4C Co1C P1C C50C 84.5(3) . . . . ?
N2C Co1C P1C C50C -88.2(3) . . . . ?
N3C Co1C P1C C50C 176.5(3) . . . . ?
N1C Co1C P1C C50C 2.7(3) . . . . ?
N4C Co1C P1C C38C -32.9(3) . . . . ?
N2C Co1C P1C C38C 154.3(3) . . . . ?
N3C Co1C P1C C38C 59.0(3) . . . . ?
N1C Co1C P1C C38C -114.8(3) . . . . ?
N4C Co1C P1C C44C -153.7(3) . . . . ?
N2C Co1C P1C C44C 33.6(3) . . . . ?
N3C Co1C P1C C44C -61.8(3) . . . . ?
N1C Co1C P1C C44C 124.4(3) . . . . ?
N4C Co1C N1C C4C -178.5(6) . . . . ?
N2C Co1C N1C C4C 15.5(6) . . . . ?
N3C Co1C N1C C4C 117.7(8) . . . . ?
P1C Co1C N1C C4C -81.5(6) . . . . ?
N4C Co1C N1C C1C -5.3(4) . . . . ?
N2C Co1C N1C C1C -171.3(4) . . . . ?
N3C Co1C N1C C1C -69.0(8) . . . . ?
P1C Co1C N1C C1C 91.7(4) . . . . ?
N4C Co1C N2C C9C 122.8(8) . . . . ?
N3C Co1C N2C C9C 16.4(5) . . . . ?
N1C Co1C N2C C9C 177.9(5) . . . . ?
P1C Co1C N2C C9C -82.8(5) . . . . ?
N4C Co1C N2C C6C -71.9(10) . . . . ?
N3C Co1C N2C C6C -178.3(5) . . . . ?
N1C Co1C N2C C6C -16.8(5) . . . . ?
P1C Co1C N2C C6C 82.5(5) . . . . ?
N4C Co1C N3C C11C -176.3(5) . . . . ?
N2C Co1C N3C C11C -12.5(5) . . . . ?
N1C Co1C N3C C11C -114.0(7) . . . . ?
P1C Co1C N3C C11C 85.1(5) . . . . ?
N4C Co1C N3C C14C 11.1(5) . . . . ?
N2C Co1C N3C C14C 175.0(5) . . . . ?
N1C Co1C N3C C14C 73.4(9) . . . . ?
P1C Co1C N3C C14C -87.4(5) . . . . ?
N2C Co1C N4C C19C 58.6(10) . . . . ?
N3C Co1C N4C C19C 165.6(4) . . . . ?
N1C Co1C N4C C19C 2.5(4) . . . . ?
P1C Co1C N4C C19C -95.7(4) . . . . ?
N2C Co1C N4C C16C -117.0(8) . . . . ?
N3C Co1C N4C C16C -10.0(5) . . . . ?
N1C Co1C N4C C16C -173.1(6) . . . . ?
P1C Co1C N4C C16C 88.7(5) . . . . ?
C4C N1C C1C C2C 2.1(7) . . . . ?
Co1C N1C C1C C2C -172.6(4) . . . . ?
C4C N1C C1C C19C -178.3(5) . . . . ?
Co1C N1C C1C C19C 7.0(7) . . . . ?
N1C C1C C2C C3C -2.5(7) . . . . ?
C19C C1C C2C C3C 178.1(8) . . . . ?
N1C C1C C2C N5C 170.9(6) . . . . ?
C19C C1C C2C N5C -8.5(13) . . . . ?
O1C N5C C2C C3C 120.3(7) . . . . ?
O2C N5C C2C C3C -60.8(9) . . . . ?
O1C N5C C2C C1C -52.3(9) . . . . ?
O2C N5C C2C C1C 126.7(7) . . . . ?
C1C C2C C3C C4C 2.0(7) . . . . ?
N5C C2C C3C C4C -171.8(6) . . . . ?
C1C C2C C3C N6C -173.8(6) . . . . ?
N5C C2C C3C N6C 12.4(10) . . . . ?
O3C N6C C3C C2C -49.6(9) . . . . ?
O4C N6C C3C C2C 131.8(7) . . . . ?
O3C N6C C3C C4C 135.6(7) . . . . ?
O4C N6C C3C C4C -42.9(10) . . . . ?
C1C N1C C4C C3C -0.9(7) . . . . ?
Co1C N1C C4C C3C 172.6(4) . . . . ?
C1C N1C C4C C5C 179.7(5) . . . . ?
Co1C N1C C4C C5C -6.8(9) . . . . ?
C2C C3C C4C N1C -0.6(7) . . . . ?
N6C C3C C4C N1C 174.7(6) . . . . ?
C2C C3C C4C C5C 178.7(7) . . . . ?
N6C C3C C4C C5C -6.0(12) . . . . ?
N1C C4C C5C C6C -5.5(9) . . . . ?
C3C C4C C5C C6C 175.3(7) . . . . ?
N1C C4C C5C C20C 172.2(6) . . . . ?
C3C C4C C5C C20C -7.0(11) . . . . ?
C4C C5C C6C N2C 2.4(10) . . . . ?
C20C C5C C6C N2C -175.2(6) . . . . ?
C4C C5C C6C C7C -176.4(6) . . . . ?
C20C C5C C6C C7C 6.0(10) . . . . ?
C9C N2C C6C C5C 179.7(6) . . . . ?
Co1C N2C C6C C5C 12.2(9) . . . . ?
C9C N2C C6C C7C -1.3(7) . . . . ?
Co1C N2C C6C C7C -168.8(4) . . . . ?
C5C C6C C7C C8C -179.5(6) . . . . ?
N2C C6C C7C C8C 1.5(7) . . . . ?
C6C C7C C8C C9C -1.0(7) . . . . ?
C6C N2C C9C C10C -178.1(6) . . . . ?
Co1C N2C C9C C10C -10.6(9) . . . . ?
C6C N2C C9C C8C 0.7(7) . . . . ?
Co1C N2C C9C C8C 168.2(4) . . . . ?
C7C C8C C9C N2C 0.2(7) . . . . ?
C7C C8C C9C C10C 179.0(6) . . . . ?
N2C C9C C10C C11C -4.9(10) . . . . ?
C8C C9C C10C C11C 176.5(6) . . . . ?
N2C C9C C10C C26C 170.3(6) . . . . ?
C8C C9C C10C C26C -8.4(10) . . . . ?
C14C N3C C11C C10C 176.2(6) . . . . ?
Co1C N3C C11C C10C 2.4(9) . . . . ?
C14C N3C C11C C12C -2.8(7) . . . . ?
Co1C N3C C11C C12C -176.7(5) . . . . ?
C9C C10C C11C N3C 9.1(10) . . . . ?
C26C C10C C11C N3C -166.0(6) . . . . ?
C9C C10C C11C C12C -172.0(7) . . . . ?
C26C C10C C11C C12C 12.9(11) . . . . ?
N3C C11C C12C C13C 4.5(9) . . . . ?
C10C C11C C12C C13C -174.5(7) . . . . ?
N3C C11C C12C N7C -160.5(7) . . . . ?
C10C C11C C12C N7C 20.5(13) . . . . ?
O5C N7C C12C C13C -135.1(8) . . . . ?
O6C N7C C12C C13C 45.4(10) . . . . ?
O5C N7C C12C C11C 28.9(12) . . . . ?
O6C N7C C12C C11C -150.6(8) . . . . ?
C11C C12C C13C C14C -4.2(9) . . . . ?
N7C C12C C13C C14C 162.8(6) . . . . ?
C11C N3C C14C C15C 178.8(6) . . . . ?
Co1C N3C C14C C15C -7.4(9) . . . . ?
C11C N3C C14C C13C 0.3(7) . . . . ?
Co1C N3C C14C C13C 174.1(4) . . . . ?
C12C C13C C14C N3C 2.4(8) . . . . ?
C12C C13C C14C C15C -176.1(7) . . . . ?
N3C C14C C15C C16C -2.5(10) . . . . ?
C13C C14C C15C C16C 175.8(6) . . . . ?
N3C C14C C15C C32C 174.1(5) . . . . ?
C13C C14C C15C C32C -7.6(10) . . . . ?
C19C N4C C16C C15C -171.8(5) . . . . ?
Co1C N4C C16C C15C 4.1(9) . . . . ?
C19C N4C C16C C17C 1.3(7) . . . . ?
Co1C N4C C16C C17C 177.2(4) . . . . ?
C14C C15C C16C N4C 4.3(9) . . . . ?
C32C C15C C16C N4C -172.4(5) . . . . ?
C14C C15C C16C C17C -167.2(6) . . . . ?
C32C C15C C16C C17C 16.1(10) . . . . ?
N4C C16C C17C C18C -1.5(7) . . . . ?
C15C C16C C17C C18C 170.8(6) . . . . ?
C16C C17C C18C C19C 1.2(7) . . . . ?
C16C C17C C18C N8C -170.4(6) . . . . ?
O8C N8C C18C C17C 159.4(7) . . . . ?
O7C N8C C18C C17C -18.2(10) . . . . ?
O8C N8C C18C C19C -10.9(10) . . . . ?
O7C N8C C18C C19C 171.5(6) . . . . ?
C16C N4C C19C C1C 177.2(5) . . . . ?
Co1C N4C C19C C1C 0.7(7) . . . . ?
C16C N4C C19C C18C -0.5(7) . . . . ?
Co1C N4C C19C C18C -177.0(4) . . . . ?
N1C C1C C19C N4C -4.7(7) . . . . ?
C2C C1C C19C N4C 174.7(8) . . . . ?
N1C C1C C19C C18C 171.7(7) . . . . ?
C2C C1C C19C C18C -8.9(15) . . . . ?
C17C C18C C19C N4C -0.5(7) . . . . ?
N8C C18C C19C N4C 171.0(6) . . . . ?
C17C C18C C19C C1C -177.1(8) . . . . ?
N8C C18C C19C C1C -5.6(13) . . . . ?
C6C C5C C20C C25C -63.0(9) . . . . ?
C4C C5C C20C C25C 119.3(7) . . . . ?
C6C C5C C20C C21C 117.1(7) . . . . ?
C4C C5C C20C C21C -60.6(8) . . . . ?
C25C C20C C21C C22C 0.2(10) . . . . ?
C5C C20C C21C C22C -179.9(6) . . . . ?
C20C C21C C22C C23C -0.6(11) . . . . ?
C21C C22C C23C C24C 3.2(12) . . . . ?
C22C C23C C24C C25C -5.3(13) . . . . ?
C21C C20C C25C C24C -2.3(10) . . . . ?
C5C C20C C25C C24C 177.8(7) . . . . ?
C23C C24C C25C C20C 4.9(12) . . . . ?
C9C C10C C26C C27C 63.6(10) . . . . ?
C11C C10C C26C C27C -121.1(8) . . . . ?
C9C C10C C26C C31C -117.2(7) . . . . ?
C11C C10C C26C C31C 58.1(8) . . . . ?
C31C C26C C27C C28C 7.5(12) . . . . ?
C10C C26C C27C C28C -173.3(7) . . . . ?
C26C C27C C28C C29C -1.2(14) . . . . ?
C27C C28C C29C C30C -6.0(14) . . . . ?
C28C C29C C30C C31C 6.6(14) . . . . ?
C27C C26C C31C C30C -7.0(11) . . . . ?
C10C C26C C31C C30C 173.8(7) . . . . ?
C29C C30C C31C C26C 0.1(12) . . . . ?
C16C C15C C32C C37C -126.2(7) . . . . ?
C14C C15C C32C C37C 57.0(9) . . . . ?
C16C C15C C32C C33C 53.0(8) . . . . ?
C14C C15C C32C C33C -123.8(7) . . . . ?
C37C C32C C33C C34C -3.1(10) . . . . ?
C15C C32C C33C C34C 177.6(6) . . . . ?
C32C C33C C34C C35C 1.8(10) . . . . ?
C33C C34C C35C C36C 0.6(11) . . . . ?
C34C C35C C36C C37C -1.6(11) . . . . ?
C33C C32C C37C C36C 2.0(9) . . . . ?
C15C C32C C37C C36C -178.7(6) . . . . ?
C35C C36C C37C C32C 0.3(10) . . . . ?
C50C P1C C38C C39C 12.0(6) . . . . ?
C44C P1C C38C C39C -100.1(6) . . . . ?
Co1C P1C C38C C39C 132.9(5) . . . . ?
C50C P1C C38C C43C -178.6(5) . . . . ?
C44C P1C C38C C43C 69.3(6) . . . . ?
Co1C P1C C38C C43C -57.7(6) . . . . ?
C43C C38C C39C C40C 1.6(10) . . . . ?
P1C C38C C39C C40C 171.1(6) . . . . ?
C38C C39C C40C C41C -0.4(12) . . . . ?
C39C C40C C41C C42C -0.4(12) . . . . ?
C40C C41C C42C C43C 0.0(12) . . . . ?
C39C C38C C43C C42C -2.0(10) . . . . ?
P1C C38C C43C C42C -171.7(5) . . . . ?
C41C C42C C43C C38C 1.3(11) . . . . ?
C50C P1C C44C C45C -120.1(5) . . . . ?
C38C P1C C44C C45C -11.4(6) . . . . ?
Co1C P1C C44C C45C 117.1(5) . . . . ?
C50C P1C C44C C49C 58.8(6) . . . . ?
C38C P1C C44C C49C 167.5(5) . . . . ?
Co1C P1C C44C C49C -64.0(6) . . . . ?
C49C C44C C45C C46C 0.6(10) . . . . ?
P1C C44C C45C C46C 179.5(5) . . . . ?
C44C C45C C46C C47C -2.6(10) . . . . ?
C45C C46C C47C C48C 3.1(11) . . . . ?
C46C C47C C48C C49C -1.7(12) . . . . ?
C47C C48C C49C C44C -0.2(11) . . . . ?
C45C C44C C49C C48C 0.8(10) . . . . ?
P1C C44C C49C C48C -178.2(6) . . . . ?
C38C P1C C50C C55C 60.8(5) . . . . ?
C44C P1C C50C C55C 169.0(5) . . . . ?
Co1C P1C C50C C55C -65.0(5) . . . . ?
C38C P1C C50C C51C -120.5(6) . . . . ?
C44C P1C C50C C51C -12.2(6) . . . . ?
Co1C P1C C50C C51C 113.7(5) . . . . ?
C55C C50C C51C C52C 1.2(10) . . . . ?
P1C C50C C51C C52C -177.5(5) . . . . ?
C50C C51C C52C C53C -1.3(10) . . . . ?
C51C C52C C53C C54C 0.4(10) . . . . ?
C52C C53C C54C C55C 0.7(10) . . . . ?
C53C C54C C55C C50C -0.9(9) . . . . ?
C51C C50C C55C C54C -0.1(9) . . . . ?
P1C C50C C55C C54C 178.6(4) . . . . ?

_diffrn_measured_fraction_theta_max 0.848
_diffrn_reflns_theta_full        25.0
_diffrn_measured_fraction_theta_full 0.903
_refine_diff_density_max         2.04
_refine_diff_density_min         -1.01
_refine_diff_density_rms         0.135

# SQUEEZE RESULTS (APPEND TO CIF)
# Note: Data are Listed for all Voids in the P1 Unit Cell
# i.e. Centre of Gravity, Solvent Accessible Volume,
# Recovered number of Electrons in the Void and
# Details about the Squeezed Material
loop_
_platon_squeeze_void_nr
_platon_squeeze_void_average_x
_platon_squeeze_void_average_y
_platon_squeeze_void_average_z
_platon_squeeze_void_volume
_platon_squeeze_void_count_electrons
_platon_squeeze_void_content
1 0.376 0.244 0.765 180 47 ' '
2 0.624 0.756 0.235 180 47 ' '
_platon_squeeze_details          
;
The asymmetric unit consists of four Co complexes, 3 ordered chloroform
molecules and one disordered chloroform site. The 47 electrons removed
by SQUEEZE corresponds roughly to one chloroform molecule, thus the solid
phase is believed to be the mono-chloroform solvate. The missing CHCl~3~
solvent molecule is included in the formula, FW, density, etc.
;

# END OF CIF


