@<TRIPOS>MOLECULE

24 28 0 0 0

SMALL
NO_CHARGES

@<TRIPOS>ATOM
     1 C8        4.2357   -0.6819    0.2955 C    1 UNL1      0.000
     2 C7        4.2356    0.6836   -0.2094 C    1 UNL1      0.000
     3 C6        2.8496    1.1000   -0.1440 C    1 UNL1      0.000
     4 C9        2.8497   -1.0994    0.0972 C    1 UNL1      0.000
     5 N2        2.0297    0.0005    0.1193 N    1 UNL1      0.000
     6 C10        2.4260   -2.4259   -0.4512 C    1 UNL1      0.000
     7 C11        1.0997   -2.8502    0.0676 C    1 UNL1      0.000
     8 N3        0.0002   -2.0298    0.1502 N    1 UNL1      0.000
     9 C14       -1.0997   -2.8493   -0.1255 C    1 UNL1      0.000
    10 C12        0.6817   -4.2361    0.2563 C    1 UNL1      0.000
    11 C13       -0.6838   -4.2352   -0.1476 C    1 UNL1      0.000
    12 C15       -2.4259   -2.4261   -0.0497 C    1 UNL1      0.000
    13 C16       -2.8499   -1.1002    0.1450 C    1 UNL1      0.000
    14 N4       -2.0301   -0.0003   -0.1192 N    1 UNL1      0.000
    15 C17       -4.2358   -0.6841    0.2094 C    1 UNL1      0.000
    16 C18       -4.2362    0.6814   -0.2957 C    1 UNL1      0.000
    17 C5        2.4259    2.4260    0.0499 C    1 UNL1      0.000
    18 C4        1.0998    2.8493    0.1261 C    1 UNL1      0.000
    19 N1       -0.0004    2.0300   -0.1505 N    1 UNL1      0.000
    20 C1       -1.0997    2.8506   -0.0676 C    1 UNL1      0.000
    21 C3        0.6844    4.2353    0.1475 C    1 UNL1      0.000
    22 C2       -0.6811    4.2366   -0.2566 C    1 UNL1      0.000
    23 C20       -2.4261    2.4261    0.4516 C    1 UNL1      0.000
    24 C19       -2.8502    1.0994   -0.0971 C    1 UNL1      0.000
@<TRIPOS>BOND
     1     1     2     1
     2     1     4     1
     3     2     3     1
     4     3     5     1
     5     3    17     1
     6     4     5     1
     7     4     6     1
     8     6     7     1
     9     7     8     1
    10     7    10     1
    11     8     9     1
    12     9    11     1
    13     9    12     1
    14    10    11     1
    15    12    13     1
    16    13    14     1
    17    13    15     1
    18    14    24     1
    19    15    16     1
    20    16    24     1
    21    17    18     1
    22    18    19     1
    23    18    21     1
    24    19    20     1
    25    20    22     1
    26    20    23     1
    27    21    22     1
    28    23    24     1
