@<TRIPOS>MOLECULE

24 28 0 0 0

SMALL
NO_CHARGES

@<TRIPOS>ATOM
     1 C3        4.2356   -0.6827    0.0848 C    1 UNL1      0.000
     2 C2        4.2358    0.6828    0.0854 C    1 UNL1      0.000
     3 C1        2.8499    1.0999    0.0336 C    1 UNL1      0.000
     4 C4        2.8496   -1.0995    0.0333 C    1 UNL1      0.000
     5 N1        2.0298    0.0004    0.2606 N    1 UNL1      0.000
     6 C5        2.4260   -2.4259   -0.3970 C    1 UNL1      0.000
     7 C6        1.0998   -2.8501    0.0339 C    1 UNL1      0.000
     8 N2        0.0001   -2.0301    0.2616 N    1 UNL1      0.000
     9 C9       -1.0996   -2.8500    0.0338 C    1 UNL1      0.000
    10 C7        0.6827   -4.2361    0.0854 C    1 UNL1      0.000
    11 C8       -0.6828   -4.2360    0.0857 C    1 UNL1      0.000
    12 C10       -2.4258   -2.4258   -0.3970 C    1 UNL1      0.000
    13 C11       -2.8497   -1.0995    0.0338 C    1 UNL1      0.000
    14 N3       -2.0301    0.0004    0.2616 N    1 UNL1      0.000
    15 C12       -4.2358   -0.6830    0.0858 C    1 UNL1      0.000
    16 C13       -4.2363    0.6825    0.0862 C    1 UNL1      0.000
    17 C20        2.4262    2.4262   -0.3978 C    1 UNL1      0.000
    18 C19        1.0999    2.8497    0.0332 C    1 UNL1      0.000
    19 N4        0.0001    2.0298    0.2603 N    1 UNL1      0.000
    20 C16       -1.0997    2.8498    0.0326 C    1 UNL1      0.000
    21 C18        0.6830    4.2357    0.0854 C    1 UNL1      0.000
    22 C17       -0.6824    4.2358    0.0856 C    1 UNL1      0.000
    23 C15       -2.4261    2.4261   -0.3977 C    1 UNL1      0.000
    24 C14       -2.8504    1.0999    0.0333 C    1 UNL1      0.000
@<TRIPOS>BOND
     1     1     2     1
     2     1     4     1
     3     2     3     1
     4     3     5     1
     5     3    17     1
     6     4     5     1
     7     4     6     1
     8     6     7     1
     9     7     8     1
    10     7    10     1
    11     8     9     1
    12     9    11     1
    13     9    12     1
    14    10    11     1
    15    12    13     1
    16    13    14     1
    17    13    15     1
    18    14    24     1
    19    15    16     1
    20    16    24     1
    21    17    18     1
    22    18    19     1
    23    18    21     1
    24    19    20     1
    25    20    22     1
    26    20    23     1
    27    21    22     1
    28    23    24     1
