@<TRIPOS>MOLECULE

24 28 0 0 0

SMALL
NO_CHARGES

@<TRIPOS>ATOM
     1 C3        4.2353   -0.6823   -0.1582 C    1 UNL1      0.000
     2 C2        4.2362    0.6830   -0.1598 C    1 UNL1      0.000
     3 C1        2.8505    1.1010    0.2422 C    1 UNL1      0.000
     4 C4        2.8491   -1.0985    0.2440 C    1 UNL1      0.000
     5 N1        2.0299    0.0017    0.5740 N    1 UNL1      0.000
     6 C5        2.4245   -2.4246    0.0016 C    1 UNL1      0.000
     7 C6        1.0984   -2.8492   -0.2438 C    1 UNL1      0.000
     8 N2       -0.0018   -2.0301   -0.5786 N    1 UNL1      0.000
     9 C9       -1.1010   -2.8509   -0.2446 C    1 UNL1      0.000
    10 C7        0.6825   -4.2355    0.1595 C    1 UNL1      0.000
    11 C8       -0.6830   -4.2366    0.1590 C    1 UNL1      0.000
    12 C10       -2.4274   -2.4274    0.0009 C    1 UNL1      0.000
    13 C11       -2.8505   -1.1009    0.2457 C    1 UNL1      0.000
    14 N3       -2.0297   -0.0017    0.5780 N    1 UNL1      0.000
    15 C12       -4.2362   -0.6829   -0.1578 C    1 UNL1      0.000
    16 C13       -4.2351    0.6826   -0.1596 C    1 UNL1      0.000
    17 C20        2.4273    2.4275   -0.0007 C    1 UNL1      0.000
    18 C19        1.1010    2.8508   -0.2417 C    1 UNL1      0.000
    19 N4        0.0016    2.0300   -0.5737 N    1 UNL1      0.000
    20 C16       -1.0984    2.8492   -0.2433 C    1 UNL1      0.000
    21 C18        0.6830    4.2364    0.1585 C    1 UNL1      0.000
    22 C17       -0.6825    4.2354    0.1578 C    1 UNL1      0.000
    23 C15       -2.4245    2.4246   -0.0012 C    1 UNL1      0.000
    24 C14       -2.8488    1.0986    0.2430 C    1 UNL1      0.000
@<TRIPOS>BOND
     1     1     2     1
     2     1     4     1
     3     2     3     1
     4     3     5     1
     5     3    17     1
     6     4     5     1
     7     4     6     1
     8     6     7     1
     9     7     8     1
    10     7    10     1
    11     8     9     1
    12     9    11     1
    13     9    12     1
    14    10    11     1
    15    12    13     1
    16    13    14     1
    17    13    15     1
    18    14    24     1
    19    15    16     1
    20    16    24     1
    21    17    18     1
    22    18    19     1
    23    18    21     1
    24    19    20     1
    25    20    22     1
    26    20    23     1
    27    21    22     1
    28    23    24     1
