@<TRIPOS>MOLECULE

24 28 0 0 0

SMALL
NO_CHARGES

@<TRIPOS>ATOM
     1 C8        4.2361   -0.6828   -0.2251 C    1 UNL1      0.000
     2 C7        4.2354    0.6826    0.0726 C    1 UNL1      0.000
     3 C6        2.8493    1.0991    0.3499 C    1 UNL1      0.000
     4 C9        2.8503   -1.1004    0.0532 C    1 UNL1      0.000
     5 N2        2.0299   -0.0010    0.4701 N    1 UNL1      0.000
     6 C10        2.4268   -2.4268   -0.2182 C    1 UNL1      0.000
     7 C11        1.1005   -2.8505    0.0380 C    1 UNL1      0.000
     8 N3        0.0011   -2.0300    0.4482 N    1 UNL1      0.000
     9 C14       -1.0990   -2.8494    0.3463 C    1 UNL1      0.000
    10 C12        0.6828   -4.2362   -0.2263 C    1 UNL1      0.000
    11 C13       -0.6826   -4.2355    0.0832 C    1 UNL1      0.000
    12 C15       -2.4251   -2.4251    0.0049 C    1 UNL1      0.000
    13 C16       -2.8494   -1.0990   -0.3469 C    1 UNL1      0.000
    14 N4       -2.0298    0.0010   -0.4654 N    1 UNL1      0.000
    15 C17       -4.2355   -0.6824   -0.0738 C    1 UNL1      0.000
    16 C18       -4.2360    0.6830    0.2235 C    1 UNL1      0.000
    17 C5        2.4250    2.4252   -0.0045 C    1 UNL1      0.000
    18 C4        1.0989    2.8494   -0.3477 C    1 UNL1      0.000
    19 N1       -0.0011    2.0299   -0.4532 N    1 UNL1      0.000
    20 C1       -1.1005    2.8504   -0.0399 C    1 UNL1      0.000
    21 C3        0.6825    4.2355   -0.0820 C    1 UNL1      0.000
    22 C2       -0.6829    4.2361    0.2273 C    1 UNL1      0.000
    23 C20       -2.4268    2.4269    0.2187 C    1 UNL1      0.000
    24 C19       -2.8502    1.1005   -0.0512 C    1 UNL1      0.000
@<TRIPOS>BOND
     1     1     2     1
     2     1     4     1
     3     2     3     1
     4     3     5     1
     5     3    17     1
     6     4     5     1
     7     4     6     1
     8     6     7     1
     9     7     8     1
    10     7    10     1
    11     8     9     1
    12     9    11     1
    13     9    12     1
    14    10    11     1
    15    12    13     1
    16    13    14     1
    17    13    15     1
    18    14    24     1
    19    15    16     1
    20    16    24     1
    21    17    18     1
    22    18    19     1
    23    18    21     1
    24    19    20     1
    25    20    22     1
    26    20    23     1
    27    21    22     1
    28    23    24     1
