@<TRIPOS>MOLECULE

22 26 0 0 0

SMALL
NO_CHARGES

@<TRIPOS>ATOM
     1 C2        0.1912    1.8931    3.4854 C    1 UNL1      0.000
     2 C3        0.1802    3.0287    2.6654 C    1 UNL1      0.000
     3 C4       -0.2654    2.5805    1.2939 C    1 UNL1      0.000
     4 C1       -0.2711    0.7515    2.6173 C    1 UNL1      0.000
     5 N1       -0.5254    1.2126    1.3580 N    1 UNL1      0.000
     6 C19       -0.2712   -0.7518    2.6172 C    1 UNL1      0.000
     7 N4       -0.5254   -1.2124    1.3578 N    1 UNL1      0.000
     8 C16       -0.2650   -2.5804    1.2937 C    1 UNL1      0.000
     9 C18        0.1909   -1.8936    3.4855 C    1 UNL1      0.000
    10 C17        0.1778   -3.0290    2.6651 C    1 UNL1      0.000
    11 C15       -0.1740   -3.2300    0.0302 C    1 UNL1      0.000
    12 C14       -0.2660   -2.5803   -1.2334 C    1 UNL1      0.000
    13 N3       -0.5240   -1.2124   -1.2975 N    1 UNL1      0.000
    14 C13        0.1759   -3.0289   -2.6046 C    1 UNL1      0.000
    15 C12        0.1910   -1.8935   -3.4250 C    1 UNL1      0.000
    16 C5       -0.1755    3.2296    0.0302 C    1 UNL1      0.000
    17 C6       -0.2655    2.5805   -1.2337 C    1 UNL1      0.000
    18 N2       -0.5236    1.2126   -1.2977 N    1 UNL1      0.000
    19 C9       -0.2689    0.7516   -2.5571 C    1 UNL1      0.000
    20 C7        0.1782    3.0288   -2.6051 C    1 UNL1      0.000
    21 C8        0.1900    1.8932   -3.4253 C    1 UNL1      0.000
    22 C11       -0.2688   -0.7518   -2.5570 C    1 UNL1      0.000
@<TRIPOS>BOND
     1     1     2     1
     2     1     4     1
     3     2     3     1
     4     3     5     1
     5     3    16     1
     6     4     5     1
     7     4     6     1
     8     6     7     1
     9     6     9     1
    10     7     8     1
    11     8    10     1
    12     8    11     1
    13     9    10     1
    14    11    12     1
    15    12    13     1
    16    12    14     1
    17    13    22     1
    18    14    15     1
    19    15    22     1
    20    16    17     1
    21    17    18     1
    22    17    20     1
    23    18    19     1
    24    19    21     1
    25    19    22     1
    26    20    21     1
