@<TRIPOS>MOLECULE

22 26 0 0 0

SMALL
NO_CHARGES

@<TRIPOS>ATOM
     1 C2        0.2189    1.8926    3.4836 C    1 UNL1      0.000
     2 C3       -0.2741    3.0288    2.6644 C    1 UNL1      0.000
     3 C4       -0.0991    2.5810    1.2931 C    1 UNL1      0.000
     4 C1        0.1598    0.7516    2.6148 C    1 UNL1      0.000
     5 N1       -0.0107    1.2132    1.3565 N    1 UNL1      0.000
     6 C19       -0.1596   -0.7517    2.6151 C    1 UNL1      0.000
     7 N4        0.0105   -1.2132    1.3567 N    1 UNL1      0.000
     8 C16        0.0983   -2.5810    1.2933 C    1 UNL1      0.000
     9 C18       -0.2189   -1.8927    3.4838 C    1 UNL1      0.000
    10 C17        0.2738   -3.0290    2.6644 C    1 UNL1      0.000
    11 C15       -0.3541   -3.2278    0.0290 C    1 UNL1      0.000
    12 C14        0.0974   -2.5753   -1.2318 C    1 UNL1      0.000
    13 N3        0.0101   -1.2084   -1.2975 N    1 UNL1      0.000
    14 C13        0.2740   -3.0257   -2.6016 C    1 UNL1      0.000
    15 C12       -0.2184   -1.8924   -3.4243 C    1 UNL1      0.000
    16 C5        0.3549    3.2280    0.0293 C    1 UNL1      0.000
    17 C6       -0.0985    2.5754   -1.2319 C    1 UNL1      0.000
    18 N2       -0.0106    1.2087   -1.2972 N    1 UNL1      0.000
    19 C9        0.1599    0.7502   -2.5575 C    1 UNL1      0.000
    20 C7       -0.2741    3.0256   -2.6016 C    1 UNL1      0.000
    21 C8        0.2181    1.8919   -3.4241 C    1 UNL1      0.000
    22 C11       -0.1591   -0.7502   -2.5576 C    1 UNL1      0.000
@<TRIPOS>BOND
     1     1     2     1
     2     1     4     1
     3     2     3     1
     4     3     5     1
     5     3    16     1
     6     4     5     1
     7     4     6     1
     8     6     7     1
     9     6     9     1
    10     7     8     1
    11     8    10     1
    12     8    11     1
    13     9    10     1
    14    11    12     1
    15    12    13     1
    16    12    14     1
    17    13    22     1
    18    14    15     1
    19    15    22     1
    20    16    17     1
    21    17    18     1
    22    17    20     1
    23    18    19     1
    24    19    21     1
    25    19    22     1
    26    20    21     1
