@<TRIPOS>MOLECULE

22 26 0 0 0

SMALL
NO_CHARGES

@<TRIPOS>ATOM
     1 C2        3.4555    1.8934   -0.2705 C    1 UNL1      0.000
     2 C3        2.6351    3.0288    0.1380 C    1 UNL1      0.000
     3 C4        1.2637    2.5804    0.2555 C    1 UNL1      0.000
     4 C1        2.5873    0.7517   -0.3359 C    1 UNL1      0.000
     5 N1        1.3280    1.2124   -0.0599 N    1 UNL1      0.000
     6 C19        2.5873   -0.7517   -0.3359 C    1 UNL1      0.000
     7 N4        1.3280   -1.2124   -0.0599 N    1 UNL1      0.000
     8 C16        1.2637   -2.5804    0.2555 C    1 UNL1      0.000
     9 C18        3.4555   -1.8934   -0.2705 C    1 UNL1      0.000
    10 C17        2.6351   -3.0288    0.1380 C    1 UNL1      0.000
    11 C15       0.0000   -3.2297    0.4860 C    1 UNL1      0.000
    12 C14       -1.2637   -2.5804    0.2555 C    1 UNL1      0.000
    13 N3       -1.3280   -1.2124   -0.0599 N    1 UNL1      0.000
    14 C13       -2.6351   -3.0288    0.1381 C    1 UNL1      0.000
    15 C12       -3.4555   -1.8934   -0.2705 C    1 UNL1      0.000
    16 C5       0.0000    3.2297    0.4859 C    1 UNL1      0.000
    17 C6       -1.2637    2.5804    0.2555 C    1 UNL1      0.000
    18 N2       -1.3280    1.2124   -0.0600 N    1 UNL1      0.000
    19 C9       -2.5873    0.7517   -0.3359 C    1 UNL1      0.000
    20 C7       -2.6351    3.0288    0.1381 C    1 UNL1      0.000
    21 C8       -3.4555    1.8934   -0.2705 C    1 UNL1      0.000
    22 C11       -2.5873   -0.7517   -0.3359 C    1 UNL1      0.000
@<TRIPOS>BOND
     1     1     2     1
     2     1     4     1
     3     2     3     1
     4     3     5     1
     5     3    16     1
     6     4     5     1
     7     4     6     1
     8     6     7     1
     9     6     9     1
    10     7     8     1
    11     8    10     1
    12     8    11     1
    13     9    10     1
    14    11    12     1
    15    12    13     1
    16    12    14     1
    17    13    22     1
    18    14    15     1
    19    15    22     1
    20    16    17     1
    21    17    18     1
    22    17    20     1
    23    18    19     1
    24    19    21     1
    25    19    22     1
    26    20    21     1
