@<TRIPOS>MOLECULE

22 26 0 0 0

SMALL
NO_CHARGES

@<TRIPOS>ATOM
     1 C2       -0.0693    1.8932    3.4856 C    1 UNL1      0.000
     2 C3        0.2234    3.0286    2.6656 C    1 UNL1      0.000
     3 C4        0.1083    2.5806    1.2938 C    1 UNL1      0.000
     4 C1       -0.1745    0.7515    2.6172 C    1 UNL1      0.000
     5 N1        0.1342    1.2124    1.3581 N    1 UNL1      0.000
     6 C19       -0.1746   -0.7520    2.6178 C    1 UNL1      0.000
     7 N4        0.1342   -1.2126    1.3584 N    1 UNL1      0.000
     8 C16        0.1086   -2.5806    1.2942 C    1 UNL1      0.000
     9 C18       -0.0696   -1.8935    3.4860 C    1 UNL1      0.000
    10 C17        0.2210   -3.0291    2.6655 C    1 UNL1      0.000
    11 C15       -0.4336   -3.2299    0.0299 C    1 UNL1      0.000
    12 C14        0.1077   -2.5806   -1.2335 C    1 UNL1      0.000
    13 N3        0.1338   -1.2122   -1.2981 N    1 UNL1      0.000
    14 C13        0.2210   -3.0291   -2.6052 C    1 UNL1      0.000
    15 C12       -0.0689   -1.8940   -3.4255 C    1 UNL1      0.000
    16 C5       -0.4351    3.2299    0.0304 C    1 UNL1      0.000
    17 C6        0.1082    2.5809   -1.2340 C    1 UNL1      0.000
    18 N2        0.1343    1.2129   -1.2979 N    1 UNL1      0.000
    19 C9       -0.1744    0.7519   -2.5573 C    1 UNL1      0.000
    20 C7        0.2233    3.0290   -2.6054 C    1 UNL1      0.000
    21 C8       -0.0699    1.8931   -3.4256 C    1 UNL1      0.000
    22 C11       -0.1742   -0.7517   -2.5572 C    1 UNL1      0.000
@<TRIPOS>BOND
     1     1     2     1
     2     1     4     1
     3     2     3     1
     4     3     5     1
     5     3    16     1
     6     4     5     1
     7     4     6     1
     8     6     7     1
     9     6     9     1
    10     7     8     1
    11     8    10     1
    12     8    11     1
    13     9    10     1
    14    11    12     1
    15    12    13     1
    16    12    14     1
    17    13    22     1
    18    14    15     1
    19    15    22     1
    20    16    17     1
    21    17    18     1
    22    17    20     1
    23    18    19     1
    24    19    21     1
    25    19    22     1
    26    20    21     1
