@<TRIPOS>MOLECULE

22 26 0 0 0

SMALL
NO_CHARGES

@<TRIPOS>ATOM
     1 C2       -0.1958    1.8937    3.4859 C    1 UNL1      0.000
     2 C3        0.0479    3.0290    2.6657 C    1 UNL1      0.000
     3 C4        0.4389    2.5807    1.2940 C    1 UNL1      0.000
     4 C1        0.1692    0.7518    2.6174 C    1 UNL1      0.000
     5 N1        0.5987    1.2124    1.3582 N    1 UNL1      0.000
     6 C19       -0.1691   -0.7516    2.6178 C    1 UNL1      0.000
     7 N4       -0.5989   -1.2124    1.3580 N    1 UNL1      0.000
     8 C16       -0.4395   -2.5800    1.2940 C    1 UNL1      0.000
     9 C18        0.1958   -1.8927    3.4856 C    1 UNL1      0.000
    10 C17       -0.0480   -3.0285    2.6648 C    1 UNL1      0.000
    11 C15        0.0011   -3.2297    0.0295 C    1 UNL1      0.000
    12 C14        0.4381   -2.5810   -1.2335 C    1 UNL1      0.000
    13 N3        0.5974   -1.2124   -1.2981 N    1 UNL1      0.000
    14 C13        0.0460   -3.0291   -2.6056 C    1 UNL1      0.000
    15 C12       -0.1952   -1.8941   -3.4256 C    1 UNL1      0.000
    16 C5       -0.0002    3.2297    0.0308 C    1 UNL1      0.000
    17 C6       -0.4394    2.5801   -1.2335 C    1 UNL1      0.000
    18 N2       -0.5979    1.2125   -1.2977 N    1 UNL1      0.000
    19 C9       -0.1683    0.7516   -2.5573 C    1 UNL1      0.000
    20 C7       -0.0463    3.0288   -2.6046 C    1 UNL1      0.000
    21 C8        0.1950    1.8932   -3.4252 C    1 UNL1      0.000
    22 C11        0.1693   -0.7518   -2.5569 C    1 UNL1      0.000
@<TRIPOS>BOND
     1     1     2     1
     2     1     4     1
     3     2     3     1
     4     3     5     1
     5     3    16     1
     6     4     5     1
     7     4     6     1
     8     6     7     1
     9     6     9     1
    10     7     8     1
    11     8    10     1
    12     8    11     1
    13     9    10     1
    14    11    12     1
    15    12    13     1
    16    12    14     1
    17    13    22     1
    18    14    15     1
    19    15    22     1
    20    16    17     1
    21    17    18     1
    22    17    20     1
    23    18    19     1
    24    19    21     1
    25    19    22     1
    26    20    21     1
