@<TRIPOS>MOLECULE

22 26 0 0 0

SMALL
NO_CHARGES

@<TRIPOS>ATOM
     1 C2       -0.2777    1.8935    3.4858 C    1 UNL1      0.000
     2 C3        0.0024    3.0288    2.6653 C    1 UNL1      0.000
     3 C4        0.0597    2.5801    1.2940 C    1 UNL1      0.000
     4 C1       -0.2203    0.7517    2.6178 C    1 UNL1      0.000
     5 N1       -0.2608    1.2122    1.3583 N    1 UNL1      0.000
     6 C19        0.2206   -0.7516    2.6179 C    1 UNL1      0.000
     7 N4        0.2605   -1.2122    1.3585 N    1 UNL1      0.000
     8 C16       -0.0605   -2.5801    1.2942 C    1 UNL1      0.000
     9 C18        0.2778   -1.8933    3.4860 C    1 UNL1      0.000
    10 C17       -0.0026   -3.0287    2.6655 C    1 UNL1      0.000
    11 C15       -0.4580   -3.2293    0.0301 C    1 UNL1      0.000
    12 C14       -0.0610   -2.5802   -1.2339 C    1 UNL1      0.000
    13 N3        0.2605   -1.2122   -1.2982 N    1 UNL1      0.000
    14 C13       -0.0025   -3.0287   -2.6053 C    1 UNL1      0.000
    15 C12        0.2784   -1.8934   -3.4257 C    1 UNL1      0.000
    16 C5        0.4589    3.2293    0.0302 C    1 UNL1      0.000
    17 C6        0.0599    2.5800   -1.2337 C    1 UNL1      0.000
    18 N2       -0.2609    1.2122   -1.2980 N    1 UNL1      0.000
    19 C9       -0.2202    0.7518   -2.5576 C    1 UNL1      0.000
    20 C7        0.0024    3.0288   -2.6048 C    1 UNL1      0.000
    21 C8       -0.2788    1.8935   -3.4254 C    1 UNL1      0.000
    22 C11        0.2210   -0.7516   -2.5576 C    1 UNL1      0.000
@<TRIPOS>BOND
     1     1     2     1
     2     1     4     1
     3     2     3     1
     4     3     5     1
     5     3    16     1
     6     4     5     1
     7     4     6     1
     8     6     7     1
     9     6     9     1
    10     7     8     1
    11     8    10     1
    12     8    11     1
    13     9    10     1
    14    11    12     1
    15    12    13     1
    16    12    14     1
    17    13    22     1
    18    14    15     1
    19    15    22     1
    20    16    17     1
    21    17    18     1
    22    17    20     1
    23    18    19     1
    24    19    21     1
    25    19    22     1
    26    20    21     1
